<additional>
	<e1Detector file="e1output.xml" freq="60" friendlyPos="x" id="e1det_0_0" lane="0_0" length="100" pos="95.15"/>
	<e1Detector file="e1output.xml" freq="60" friendlyPos="x" id="e1det_3_0" lane="3_0" length="100" pos="90.4"/>
	<e1Detector file="e1output.xml" freq="60" friendlyPos="x" id="e1det_40_0" lane="40_0" length="100" pos="95.15"/>
	<e1Detector file="e1output.xml" freq="60" friendlyPos="x" id="e1det_49_0" lane="49_0" length="100" pos="90.4"/>
	<e1Detector file="e1output.xml" freq="60" friendlyPos="x" id="e1det_10_0" lane="10_0" length="100" pos="95.15"/>
	<e1Detector file="e1output.xml" freq="60" friendlyPos="x" id="e1det_13_0" lane="13_0" length="100" pos="90.4"/>
	<e1Detector file="e1output.xml" freq="60" friendlyPos="x" id="e1det_48_0" lane="48_0" length="100" pos="90.4"/>
	<e1Detector file="e1output.xml" freq="60" friendlyPos="x" id="e1det_57_0" lane="57_0" length="100" pos="90.4"/>
	<e1Detector file="e1output.xml" freq="60" friendlyPos="x" id="e1det_12_0" lane="12_0" length="100" pos="90.4"/>
	<e1Detector file="e1output.xml" freq="60" friendlyPos="x" id="e1det_15_0" lane="15_0" length="100" pos="90.4"/>
	<e1Detector file="e1output.xml" freq="60" friendlyPos="x" id="e1det_50_0" lane="50_0" length="100" pos="90.4"/>
	<e1Detector file="e1output.xml" freq="60" friendlyPos="x" id="e1det_59_0" lane="59_0" length="100" pos="90.4"/>
	<e1Detector file="e1output.xml" freq="60" friendlyPos="x" id="e1det_14_0" lane="14_0" length="100" pos="90.4"/>
	<e1Detector file="e1output.xml" freq="60" friendlyPos="x" id="e1det_17_0" lane="17_0" length="100" pos="90.4"/>
	<e1Detector file="e1output.xml" freq="60" friendlyPos="x" id="e1det_52_0" lane="52_0" length="100" pos="90.4"/>
	<e1Detector file="e1output.xml" freq="60" friendlyPos="x" id="e1det_61_0" lane="61_0" length="100" pos="90.4"/>
	<e1Detector file="e1output.xml" freq="60" friendlyPos="x" id="e1det_16_0" lane="16_0" length="100" pos="90.4"/>
	<e1Detector file="e1output.xml" freq="60" friendlyPos="x" id="e1det_19_0" lane="19_0" length="100" pos="95.15"/>
	<e1Detector file="e1output.xml" freq="60" friendlyPos="x" id="e1det_54_0" lane="54_0" length="100" pos="90.4"/>
	<e1Detector file="e1output.xml" freq="60" friendlyPos="x" id="e1det_63_0" lane="63_0" length="100" pos="90.4"/>
	<e1Detector file="e1output.xml" freq="60" friendlyPos="x" id="e1det_2_0" lane="2_0" length="100" pos="90.4"/>
	<e1Detector file="e1output.xml" freq="60" friendlyPos="x" id="e1det_42_0" lane="42_0" length="100" pos="95.15"/>
	<e1Detector file="e1output.xml" freq="60" friendlyPos="x" id="e1det_5_0" lane="5_0" length="100" pos="90.4"/>
	<e1Detector file="e1output.xml" freq="60" friendlyPos="x" id="e1det_51_0" lane="51_0" length="100" pos="90.4"/>
	<e1Detector file="e1output.xml" freq="60" friendlyPos="x" id="e1det_20_0" lane="20_0" length="100" pos="95.15"/>
	<e1Detector file="e1output.xml" freq="60" friendlyPos="x" id="e1det_23_0" lane="23_0" length="100" pos="90.4"/>
	<e1Detector file="e1output.xml" freq="60" friendlyPos="x" id="e1det_56_0" lane="56_0" length="100" pos="90.4"/>
	<e1Detector file="e1output.xml" freq="60" friendlyPos="x" id="e1det_65_0" lane="65_0" length="100" pos="90.4"/>
	<e1Detector file="e1output.xml" freq="60" friendlyPos="x" id="e1det_22_0" lane="22_0" length="100" pos="90.4"/>
	<e1Detector file="e1output.xml" freq="60" friendlyPos="x" id="e1det_25_0" lane="25_0" length="100" pos="90.4"/>
	<e1Detector file="e1output.xml" freq="60" friendlyPos="x" id="e1det_58_0" lane="58_0" length="100" pos="90.4"/>
	<e1Detector file="e1output.xml" freq="60" friendlyPos="x" id="e1det_67_0" lane="67_0" length="100" pos="90.4"/>
	<e1Detector file="e1output.xml" freq="60" friendlyPos="x" id="e1det_24_0" lane="24_0" length="100" pos="90.4"/>
	<e1Detector file="e1output.xml" freq="60" friendlyPos="x" id="e1det_27_0" lane="27_0" length="100" pos="90.4"/>
	<e1Detector file="e1output.xml" freq="60" friendlyPos="x" id="e1det_60_0" lane="60_0" length="100" pos="90.4"/>
	<e1Detector file="e1output.xml" freq="60" friendlyPos="x" id="e1det_69_0" lane="69_0" length="100" pos="90.4"/>
	<e1Detector file="e1output.xml" freq="60" friendlyPos="x" id="e1det_26_0" lane="26_0" length="100" pos="90.4"/>
	<e1Detector file="e1output.xml" freq="60" friendlyPos="x" id="e1det_29_0" lane="29_0" length="100" pos="95.15"/>
	<e1Detector file="e1output.xml" freq="60" friendlyPos="x" id="e1det_62_0" lane="62_0" length="100" pos="90.4"/>
	<e1Detector file="e1output.xml" freq="60" friendlyPos="x" id="e1det_71_0" lane="71_0" length="100" pos="90.4"/>
	<e1Detector file="e1output.xml" freq="60" friendlyPos="x" id="e1det_30_0" lane="30_0" length="100" pos="95.15"/>
	<e1Detector file="e1output.xml" freq="60" friendlyPos="x" id="e1det_33_0" lane="33_0" length="100" pos="90.4"/>
	<e1Detector file="e1output.xml" freq="60" friendlyPos="x" id="e1det_64_0" lane="64_0" length="100" pos="90.4"/>
	<e1Detector file="e1output.xml" freq="60" friendlyPos="x" id="e1det_73_0" lane="73_0" length="100" pos="95.15"/>
	<e1Detector file="e1output.xml" freq="60" friendlyPos="x" id="e1det_32_0" lane="32_0" length="100" pos="90.4"/>
	<e1Detector file="e1output.xml" freq="60" friendlyPos="x" id="e1det_35_0" lane="35_0" length="100" pos="90.4"/>
	<e1Detector file="e1output.xml" freq="60" friendlyPos="x" id="e1det_66_0" lane="66_0" length="100" pos="90.4"/>
	<e1Detector file="e1output.xml" freq="60" friendlyPos="x" id="e1det_75_0" lane="75_0" length="100" pos="95.15"/>
	<e1Detector file="e1output.xml" freq="60" friendlyPos="x" id="e1det_34_0" lane="34_0" length="100" pos="90.4"/>
	<e1Detector file="e1output.xml" freq="60" friendlyPos="x" id="e1det_37_0" lane="37_0" length="100" pos="90.4"/>
	<e1Detector file="e1output.xml" freq="60" friendlyPos="x" id="e1det_68_0" lane="68_0" length="100" pos="90.4"/>
	<e1Detector file="e1output.xml" freq="60" friendlyPos="x" id="e1det_77_0" lane="77_0" length="100" pos="95.15"/>
	<e1Detector file="e1output.xml" freq="60" friendlyPos="x" id="e1det_36_0" lane="36_0" length="100" pos="90.4"/>
	<e1Detector file="e1output.xml" freq="60" friendlyPos="x" id="e1det_39_0" lane="39_0" length="100" pos="95.15"/>
	<e1Detector file="e1output.xml" freq="60" friendlyPos="x" id="e1det_70_0" lane="70_0" length="100" pos="90.4"/>
	<e1Detector file="e1output.xml" freq="60" friendlyPos="x" id="e1det_79_0" lane="79_0" length="100" pos="95.15"/>
	<e1Detector file="e1output.xml" freq="60" friendlyPos="x" id="e1det_4_0" lane="4_0" length="100" pos="90.4"/>
	<e1Detector file="e1output.xml" freq="60" friendlyPos="x" id="e1det_44_0" lane="44_0" length="100" pos="95.15"/>
	<e1Detector file="e1output.xml" freq="60" friendlyPos="x" id="e1det_53_0" lane="53_0" length="100" pos="90.4"/>
	<e1Detector file="e1output.xml" freq="60" friendlyPos="x" id="e1det_7_0" lane="7_0" length="100" pos="90.4"/>
	<e1Detector file="e1output.xml" freq="60" friendlyPos="x" id="e1det_46_0" lane="46_0" length="100" pos="95.15"/>
	<e1Detector file="e1output.xml" freq="60" friendlyPos="x" id="e1det_55_0" lane="55_0" length="100" pos="90.4"/>
	<e1Detector file="e1output.xml" freq="60" friendlyPos="x" id="e1det_6_0" lane="6_0" length="100" pos="90.4"/>
	<e1Detector file="e1output.xml" freq="60" friendlyPos="x" id="e1det_9_0" lane="9_0" length="100" pos="95.15"/>
</additional>
