<?xml version="1.0" encoding="UTF-8"?>

<!-- generated on Mon Nov  4 17:20:45 2013 by SUMO duarouter Version 0.17.1
<?xml version="1.0" encoding="UTF-8"?>

<configuration xmlns:xsi="http://www.w3.org/2001/XMLSchema-instance" xsi:noNamespaceSchemaLocation="http://sumo.sf.net/xsd/duarouterConfiguration.xsd">

    <input>
        <net-file value="test.net.xml"/>
        <trip-files value="trips.trips.xml"/>
    </input>

    <output>
        <output-file value="my.rou.xml"/>
    </output>

</configuration>
-->

<routes xmlns:xsi="http://www.w3.org/2001/XMLSchema-instance" xsi:noNamespaceSchemaLocation="http://sumo.sf.net/xsd/routes_file.xsd">
    <vehicle id="0" depart="0.00">
        <route edges="77 35 67 59 14 53 52"/>
    </vehicle>
    <vehicle id="1" depart="1.00">
        <route edges="73 32 67 59 14 53 6 47 46"/>
    </vehicle>
    <vehicle id="2" depart="2.00">
        <route edges="31 30 65 57 49 48"/>
    </vehicle>
    <vehicle id="3" depart="3.00">
        <route edges="43 42 50 58 66 33 65 64"/>
    </vehicle>
    <vehicle id="4" depart="4.00">
        <route edges="48 12 14 53 6 54 62 28"/>
    </vehicle>
    <vehicle id="5" depart="5.00">
        <route edges="15 58 66 33 31"/>
    </vehicle>
    <vehicle id="6" depart="6.00">
        <route edges="23 64 32 34 36"/>
    </vehicle>
    <vehicle id="7" depart="7.00">
        <route edges="17 15 58 66 34 35"/>
    </vehicle>
    <vehicle id="8" depart="8.00">
        <route edges="55 7 52 15 13"/>
    </vehicle>
    <vehicle id="9" depart="9.00">
        <route edges="30 32 67"/>
    </vehicle>
    <vehicle id="10" depart="10.00">
        <route edges="54 55 7 52 15 58 66 34 69"/>
    </vehicle>
    <vehicle id="11" depart="11.00">
        <route edges="66 67 59 51 43 42"/>
    </vehicle>
    <vehicle id="12" depart="12.00">
        <route edges="2 3"/>
    </vehicle>
    <vehicle id="13" depart="13.00">
        <route edges="8 9 7 52 15 58 66 34 35"/>
    </vehicle>
    <vehicle id="14" depart="14.00">
        <route edges="27 61 15 58 23"/>
    </vehicle>
    <vehicle id="15" depart="15.00">
        <route edges="11 10 12 14 53 6 54 18"/>
    </vehicle>
    <vehicle id="16" depart="16.00">
        <route edges="13 12 14 53 6 7"/>
    </vehicle>
    <vehicle id="17" depart="17.00">
        <route edges="66 67 59 14 53 6 54 18"/>
    </vehicle>
    <vehicle id="18" depart="18.00">
        <route edges="77 35"/>
    </vehicle>
    <vehicle id="19" depart="19.00">
        <route edges="32 33 65 57 56"/>
    </vehicle>
    <vehicle id="20" depart="20.00">
        <route edges="4 52 15 58 23"/>
    </vehicle>
    <vehicle id="21" depart="21.00">
        <route edges="0 48 11 10"/>
    </vehicle>
    <vehicle id="22" depart="22.00">
        <route edges="8 9 54 18"/>
    </vehicle>
    <vehicle id="23" depart="23.00">
        <route edges="7 6 54 18 19"/>
    </vehicle>
    <vehicle id="24" depart="24.00">
        <route edges="75 33 72 73"/>
    </vehicle>
    <vehicle id="25" depart="25.00">
        <route edges="55 54 17"/>
    </vehicle>
    <vehicle id="26" depart="26.00">
        <route edges="18 19 55 7 52 15 13"/>
    </vehicle>
    <vehicle id="27" depart="27.00">
        <route edges="57 12 58 24"/>
    </vehicle>
    <vehicle id="28" depart="28.00">
        <route edges="2 50 58 66 33 31 30"/>
    </vehicle>
    <vehicle id="29" depart="29.00">
        <route edges="0 48 56 57"/>
    </vehicle>
    <vehicle id="30" depart="30.00">
        <route edges="72 73 32 67 24"/>
    </vehicle>
    <vehicle id="31" depart="31.00">
        <route edges="14 15 51 3"/>
    </vehicle>
    <vehicle id="32" depart="32.00">
        <route edges="24 61 15 58 66 33 31"/>
    </vehicle>
    <vehicle id="33" depart="33.00">
        <route edges="2 50 13 11"/>
    </vehicle>
    <vehicle id="34" depart="34.00">
        <route edges="62 63 55 7 52"/>
    </vehicle>
    <vehicle id="35" depart="35.00">
        <route edges="26 70 37 35 33 32"/>
    </vehicle>
    <vehicle id="36" depart="36.00">
        <route edges="22 59 14 53 6 54 62 63"/>
    </vehicle>
    <vehicle id="37" depart="37.00">
        <route edges="68 35 33 31 30"/>
    </vehicle>
    <vehicle id="38" depart="38.00">
        <route edges="73 72"/>
    </vehicle>
    <vehicle id="39" depart="39.00">
        <route edges="76 77 35 33 65 57 49 41 40"/>
    </vehicle>
    <vehicle id="40" depart="40.00">
        <route edges="3 48 56 64 31"/>
    </vehicle>
    <vehicle id="41" depart="41.00">
        <route edges="6 54 62"/>
    </vehicle>
    <vehicle id="42" depart="42.00">
        <route edges="76 77 36 78"/>
    </vehicle>
    <vehicle id="43" depart="43.00">
        <route edges="25 66 34 36"/>
    </vehicle>
    <vehicle id="44" depart="44.00">
        <route edges="44 6 54 62 70"/>
    </vehicle>
    <vehicle id="45" depart="45.00">
        <route edges="42 50 14 53 6 54 62 70 38 39"/>
    </vehicle>
    <vehicle id="46" depart="46.00">
        <route edges="37 35 67 59 14 53"/>
    </vehicle>
    <vehicle id="47" depart="47.00">
        <route edges="51 43 42"/>
    </vehicle>
    <vehicle id="48" depart="48.00">
        <route edges="55 7 52 15 58 66 33 72"/>
    </vehicle>
    <vehicle id="49" depart="49.00">
        <route edges="36 37 76"/>
    </vehicle>
    <vehicle id="50" depart="50.00">
        <route edges="42 50 14 60"/>
    </vehicle>
    <vehicle id="51" depart="51.00">
        <route edges="39 37 35 33 65 57 12"/>
    </vehicle>
    <vehicle id="52" depart="52.00">
        <route edges="25 59 14 53 6 54"/>
    </vehicle>
    <vehicle id="53" depart="53.00">
        <route edges="20 64 32 67 23"/>
    </vehicle>
    <vehicle id="54" depart="54.00">
        <route edges="79 71 63 55 7 52 60"/>
    </vehicle>
    <vehicle id="55" depart="55.00">
        <route edges="32 67 59 14 53 6 8"/>
    </vehicle>
    <vehicle id="56" depart="56.00">
        <route edges="17 53 6 54 62"/>
    </vehicle>
    <vehicle id="57" depart="57.00">
        <route edges="30 32 67 66"/>
    </vehicle>
    <vehicle id="58" depart="58.00">
        <route edges="38 39 71 63 55 7 52 15"/>
    </vehicle>
    <vehicle id="59" depart="59.00">
        <route edges="1 0 48 56 64 32 34 36"/>
    </vehicle>
    <vehicle id="60" depart="60.00">
        <route edges="18 19 55 8"/>
    </vehicle>
    <vehicle id="61" depart="61.00">
        <route edges="17 15 58 66 33 65 22"/>
    </vehicle>
    <vehicle id="62" depart="62.00">
        <route edges="46 7 52 60 61"/>
    </vehicle>
    <vehicle id="63" depart="63.00">
        <route edges="25 66 33 65 64"/>
    </vehicle>
    <vehicle id="64" depart="64.00">
        <route edges="26 63 55 7 52 15 58 23"/>
    </vehicle>
    <vehicle id="65" depart="65.00">
        <route edges="16 55 7 52 15 51 3"/>
    </vehicle>
    <vehicle id="66" depart="66.00">
        <route edges="43 42 50 58 66 34 36"/>
    </vehicle>
    <vehicle id="67" depart="67.00">
        <route edges="52 53 6 8"/>
    </vehicle>
    <vehicle id="68" depart="68.00">
        <route edges="48 12 14 53 6 47 46"/>
    </vehicle>
    <vehicle id="69" depart="69.00">
        <route edges="4 52 15 58 66 33 65 64"/>
    </vehicle>
    <vehicle id="70" depart="70.00">
        <route edges="30 32 67 59 14 60 68"/>
    </vehicle>
    <vehicle id="71" depart="71.00">
        <route edges="1 0 48 12 14 53 6 8"/>
    </vehicle>
    <vehicle id="72" depart="72.00">
        <route edges="66 34 35"/>
    </vehicle>
    <vehicle id="73" depart="73.00">
        <route edges="4 52 15 58"/>
    </vehicle>
    <vehicle id="74" depart="74.00">
        <route edges="54 62 63"/>
    </vehicle>
    <vehicle id="75" depart="75.00">
        <route edges="29 63 55 47"/>
    </vehicle>
    <vehicle id="76" depart="76.00">
        <route edges="70 71 63 55 7"/>
    </vehicle>
    <vehicle id="77" depart="77.00">
        <route edges="4 6 54 62 28 29"/>
    </vehicle>
    <vehicle id="78" depart="78.00">
        <route edges="67 59 14 53 6 7"/>
    </vehicle>
    <vehicle id="79" depart="79.00">
        <route edges="62 63 55 7 52 53"/>
    </vehicle>
    <vehicle id="80" depart="80.00">
        <route edges="63 55 7 52 15 58 66 33 31"/>
    </vehicle>
    <vehicle id="81" depart="81.00">
        <route edges="24 61 15 13 11"/>
    </vehicle>
    <vehicle id="82" depart="82.00">
        <route edges="9 7 52 15 51 43"/>
    </vehicle>
    <vehicle id="83" depart="83.00">
        <route edges="71 70 38 39"/>
    </vehicle>
    <vehicle id="84" depart="84.00">
        <route edges="49 1 0"/>
    </vehicle>
    <vehicle id="85" depart="85.00">
        <route edges="29 63 55 7 52 15 51 3"/>
    </vehicle>
    <vehicle id="86" depart="86.00">
        <route edges="43 42 50 14 53 6 54 62 70 78 79"/>
    </vehicle>
    <vehicle id="87" depart="87.00">
        <route edges="76 77 35 67 59 51"/>
    </vehicle>
    <vehicle id="88" depart="88.00">
        <route edges="19 62 28"/>
    </vehicle>
    <vehicle id="89" depart="89.00">
        <route edges="22 66 34 36 71"/>
    </vehicle>
    <vehicle id="90" depart="90.00">
        <route edges="19 55 7 52"/>
    </vehicle>
    <vehicle id="91" depart="91.00">
        <route edges="66 67"/>
    </vehicle>
    <vehicle id="92" depart="92.00">
        <route edges="55 7 52 15 58 66 34 76"/>
    </vehicle>
    <vehicle id="93" depart="93.00">
        <route edges="37 35 34"/>
    </vehicle>
    <vehicle id="94" depart="94.00">
        <route edges="37 35 67 59 58"/>
    </vehicle>
    <vehicle id="95" depart="95.00">
        <route edges="69 61 60"/>
    </vehicle>
    <vehicle id="96" depart="96.00">
        <route edges="9 7 52 15 58"/>
    </vehicle>
    <vehicle id="97" depart="97.00">
        <route edges="10 12 14 53 6"/>
    </vehicle>
    <vehicle id="98" depart="98.00">
        <route edges="59 14 53 6 47 46"/>
    </vehicle>
    <vehicle id="99" depart="99.00">
        <route edges="77 35 33 32"/>
    </vehicle>
    <vehicle id="100" depart="100.00">
        <route edges="34 35 67 59 14 53 6 54 17"/>
    </vehicle>
    <vehicle id="101" depart="101.00">
        <route edges="17 53 6 54 62 70 71"/>
    </vehicle>
    <vehicle id="102" depart="102.00">
        <route edges="5 50 58 66 33 65 22"/>
    </vehicle>
    <vehicle id="103" depart="103.00">
        <route edges="33 32 67 59 14 60 68"/>
    </vehicle>
    <vehicle id="104" depart="104.00">
        <route edges="76 77 35 33 72 73"/>
    </vehicle>
    <vehicle id="105" depart="105.00">
        <route edges="52 15 58 66 34"/>
    </vehicle>
    <vehicle id="106" depart="106.00">
        <route edges="8 9 7 52 15 58 66 67"/>
    </vehicle>
    <vehicle id="107" depart="107.00">
        <route edges="18 19 55 47 46"/>
    </vehicle>
    <vehicle id="108" depart="108.00">
        <route edges="27 61 53 6 54 62 70 78 79"/>
    </vehicle>
    <vehicle id="109" depart="109.00">
        <route edges="27 61 15 58 66 74 75"/>
    </vehicle>
    <vehicle id="110" depart="110.00">
        <route edges="37 35 34"/>
    </vehicle>
    <vehicle id="111" depart="111.00">
        <route edges="27 61 15 51 50"/>
    </vehicle>
    <vehicle id="112" depart="112.00">
        <route edges="73 32 67 59 14 53"/>
    </vehicle>
    <vehicle id="113" depart="113.00">
        <route edges="50 14 53 6 54 17"/>
    </vehicle>
    <vehicle id="114" depart="114.00">
        <route edges="34 35 67 59 14 53 6"/>
    </vehicle>
    <vehicle id="115" depart="115.00">
        <route edges="57 12 14 53 6 54 17"/>
    </vehicle>
    <vehicle id="116" depart="116.00">
        <route edges="28 29 70 37 35 33"/>
    </vehicle>
    <vehicle id="117" depart="117.00">
        <route edges="38 39 37 35 67 66"/>
    </vehicle>
    <vehicle id="118" depart="118.00">
        <route edges="29 63 55 7 52 15 51 43"/>
    </vehicle>
    <vehicle id="119" depart="119.00">
        <route edges="51 50 58 24"/>
    </vehicle>
    <vehicle id="120" depart="120.00">
        <route edges="47 46 7 52 15 58 66 33"/>
    </vehicle>
    <vehicle id="121" depart="121.00">
        <route edges="28 29 70 78"/>
    </vehicle>
    <vehicle id="122" depart="122.00">
        <route edges="28 29 70 37 35 33 31"/>
    </vehicle>
    <vehicle id="123" depart="123.00">
        <route edges="39 37 76"/>
    </vehicle>
    <vehicle id="124" depart="124.00">
        <route edges="22 59 51 43 42"/>
    </vehicle>
    <vehicle id="125" depart="125.00">
        <route edges="64 65 22"/>
    </vehicle>
    <vehicle id="126" depart="126.00">
        <route edges="70 71 63 55 7 52 60 68"/>
    </vehicle>
    <vehicle id="127" depart="127.00">
        <route edges="68 36 71 63"/>
    </vehicle>
    <vehicle id="128" depart="128.00">
        <route edges="75 67 59 14 53 6 54 17"/>
    </vehicle>
    <vehicle id="129" depart="129.00">
        <route edges="1 0 48 12 14 53 5"/>
    </vehicle>
    <vehicle id="130" depart="130.00">
        <route edges="76 77 35 33 65 57"/>
    </vehicle>
    <vehicle id="131" depart="131.00">
        <route edges="21 20 64 32 67 59 14 53 6 47 46"/>
    </vehicle>
    <vehicle id="132" depart="132.00">
        <route edges="14 15 58 66"/>
    </vehicle>
    <vehicle id="133" depart="133.00">
        <route edges="7 45 44"/>
    </vehicle>
    <vehicle id="134" depart="134.00">
        <route edges="11 10 12 14 16"/>
    </vehicle>
    <vehicle id="135" depart="135.00">
        <route edges="76 77 35 67 59 14 53 6 54 18"/>
    </vehicle>
    <vehicle id="136" depart="136.00">
        <route edges="12 14 15"/>
    </vehicle>
    <vehicle id="137" depart="137.00">
        <route edges="27 61 15"/>
    </vehicle>
    <vehicle id="138" depart="138.00">
        <route edges="75 67 59 14 53 6 54 55"/>
    </vehicle>
    <vehicle id="139" depart="139.00">
        <route edges="34 36 71 27"/>
    </vehicle>
    <vehicle id="140" depart="140.00">
        <route edges="42 50 14 53 6 47 46"/>
    </vehicle>
    <vehicle id="141" depart="141.00">
        <route edges="78 79 37 35 33 65 57 49 41 40"/>
    </vehicle>
    <vehicle id="142" depart="142.00">
        <route edges="73 65 57 49 41"/>
    </vehicle>
    <vehicle id="143" depart="143.00">
        <route edges="10 56 64 32 67"/>
    </vehicle>
    <vehicle id="144" depart="144.00">
        <route edges="22 59 14 60"/>
    </vehicle>
    <vehicle id="145" depart="145.00">
        <route edges="9 7 52 15 58 66 33 65 57"/>
    </vehicle>
    <vehicle id="146" depart="146.00">
        <route edges="54 55 7 52 15 58 59"/>
    </vehicle>
    <vehicle id="147" depart="147.00">
        <route edges="75 67 24"/>
    </vehicle>
    <vehicle id="148" depart="148.00">
        <route edges="77 35 67 59 14 53 6 54 62"/>
    </vehicle>
    <vehicle id="149" depart="149.00">
        <route edges="33 65 57 49 48"/>
    </vehicle>
    <vehicle id="150" depart="150.00">
        <route edges="29 63 55 8 9"/>
    </vehicle>
    <vehicle id="151" depart="151.00">
        <route edges="12 13 49 41"/>
    </vehicle>
    <vehicle id="152" depart="152.00">
        <route edges="30 32 34 76"/>
    </vehicle>
    <vehicle id="153" depart="153.00">
        <route edges="58 66 67"/>
    </vehicle>
    <vehicle id="154" depart="154.00">
        <route edges="61 15 58 66 34 76 77"/>
    </vehicle>
    <vehicle id="155" depart="155.00">
        <route edges="63 55 7 52 15 58"/>
    </vehicle>
    <vehicle id="156" depart="156.00">
        <route edges="68 35 67 59 51"/>
    </vehicle>
    <vehicle id="157" depart="157.00">
        <route edges="1 0 48 12 51 43"/>
    </vehicle>
    <vehicle id="158" depart="158.00">
        <route edges="16 55 7 52 15 51 43 42"/>
    </vehicle>
    <vehicle id="159" depart="159.00">
        <route edges="20 64 32 67 59 51 4"/>
    </vehicle>
    <vehicle id="160" depart="160.00">
        <route edges="62 63 55 7 52 53"/>
    </vehicle>
    <vehicle id="161" depart="161.00">
        <route edges="10 12 14 53 52"/>
    </vehicle>
    <vehicle id="162" depart="162.00">
        <route edges="9 54 62 70 37"/>
    </vehicle>
    <vehicle id="163" depart="163.00">
        <route edges="48 12 14 53 6 54 62 63"/>
    </vehicle>
    <vehicle id="164" depart="164.00">
        <route edges="22 59 14 53 45"/>
    </vehicle>
    <vehicle id="165" depart="165.00">
        <route edges="6 7 45"/>
    </vehicle>
    <vehicle id="166" depart="166.00">
        <route edges="48 12 14 60 26"/>
    </vehicle>
    <vehicle id="167" depart="167.00">
        <route edges="18 19 55 7 5"/>
    </vehicle>
    <vehicle id="168" depart="168.00">
        <route edges="65 64 32 34 36 71 27"/>
    </vehicle>
    <vehicle id="169" depart="169.00">
        <route edges="19 55 7 52 15 58 66 33 65 21 20"/>
    </vehicle>
    <vehicle id="170" depart="170.00">
        <route edges="33 32 34 36"/>
    </vehicle>
    <vehicle id="171" depart="171.00">
        <route edges="78 79 37 35 33 65 57 11"/>
    </vehicle>
    <vehicle id="172" depart="172.00">
        <route edges="76 77 35 67 59 14 53 6 54 62"/>
    </vehicle>
    <vehicle id="173" depart="173.00">
        <route edges="64 32 34 36 71 27"/>
    </vehicle>
    <vehicle id="174" depart="174.00">
        <route edges="46 7 52 15 58 66 33 72"/>
    </vehicle>
    <vehicle id="175" depart="175.00">
        <route edges="41 40 48 56 21 20"/>
    </vehicle>
    <vehicle id="176" depart="176.00">
        <route edges="59 14 60 61"/>
    </vehicle>
    <vehicle id="177" depart="177.00">
        <route edges="25 66 33 31 30"/>
    </vehicle>
    <vehicle id="178" depart="178.00">
        <route edges="44 6 54"/>
    </vehicle>
    <vehicle id="179" depart="179.00">
        <route edges="6 7 52 15 51 50"/>
    </vehicle>
    <vehicle id="180" depart="180.00">
        <route edges="23 64 65"/>
    </vehicle>
    <vehicle id="181" depart="181.00">
        <route edges="48 12 14 60 25"/>
    </vehicle>
    <vehicle id="182" depart="182.00">
        <route edges="61 15 58 24"/>
    </vehicle>
    <vehicle id="183" depart="183.00">
        <route edges="53 52 15 58 66 74"/>
    </vehicle>
    <vehicle id="184" depart="184.00">
        <route edges="20 64 32 67 59 14 53 6 47"/>
    </vehicle>
    <vehicle id="185" depart="185.00">
        <route edges="64 32 67 59 14 53 6 54 18"/>
    </vehicle>
    <vehicle id="186" depart="186.00">
        <route edges="3 48 12 58 59"/>
    </vehicle>
    <vehicle id="187" depart="187.00">
        <route edges="61 53 6 54 18"/>
    </vehicle>
    <vehicle id="188" depart="188.00">
        <route edges="70 37 35 67 59"/>
    </vehicle>
    <vehicle id="189" depart="189.00">
        <route edges="42 50 14 53 6 54"/>
    </vehicle>
    <vehicle id="190" depart="190.00">
        <route edges="37 35 33 65 57 49 1 0"/>
    </vehicle>
    <vehicle id="191" depart="191.00">
        <route edges="56 64 32 67 59 14 53 6 54 17"/>
    </vehicle>
    <vehicle id="192" depart="192.00">
        <route edges="64 32 34 36 38 39"/>
    </vehicle>
    <vehicle id="193" depart="193.00">
        <route edges="1 0"/>
    </vehicle>
    <vehicle id="194" depart="194.00">
        <route edges="43 42 50 58 66 34 35"/>
    </vehicle>
    <vehicle id="195" depart="195.00">
        <route edges="70 71 63 55 7 52 15 51 4"/>
    </vehicle>
    <vehicle id="196" depart="196.00">
        <route edges="78 79 71 63 55 7 52 15 58"/>
    </vehicle>
    <vehicle id="197" depart="197.00">
        <route edges="40 48 12 51 4"/>
    </vehicle>
    <vehicle id="198" depart="198.00">
        <route edges="69 61 15 13 49 41 40"/>
    </vehicle>
    <vehicle id="199" depart="199.00">
        <route edges="21 20 64 32 67 66"/>
    </vehicle>
    <vehicle id="200" depart="200.00">
        <route edges="17 15 58 66"/>
    </vehicle>
    <vehicle id="201" depart="201.00">
        <route edges="17 15 58 66 33 31"/>
    </vehicle>
    <vehicle id="202" depart="202.00">
        <route edges="18 19 55 7 52 15 58 66 33 65 57"/>
    </vehicle>
    <vehicle id="203" depart="203.00">
        <route edges="59 14 53 6"/>
    </vehicle>
    <vehicle id="204" depart="204.00">
        <route edges="77 35 34"/>
    </vehicle>
    <vehicle id="205" depart="205.00">
        <route edges="38 39 37 35 74 75"/>
    </vehicle>
    <vehicle id="206" depart="206.00">
        <route edges="14 15 58 66 74 75"/>
    </vehicle>
    <vehicle id="207" depart="207.00">
        <route edges="62 70 37 35 33 65 21 20"/>
    </vehicle>
    <vehicle id="208" depart="208.00">
        <route edges="18 19 55 7 52 15 13 56"/>
    </vehicle>
    <vehicle id="209" depart="209.00">
        <route edges="56 57 49 48"/>
    </vehicle>
    <vehicle id="210" depart="210.00">
        <route edges="41 40 48 12 51 50"/>
    </vehicle>
    <vehicle id="211" depart="211.00">
        <route edges="78 79 37 35 33 65 57 49 2"/>
    </vehicle>
    <vehicle id="212" depart="212.00">
        <route edges="11 10 12 14 53 6 54 55"/>
    </vehicle>
    <vehicle id="213" depart="213.00">
        <route edges="55 7 52 60 25"/>
    </vehicle>
    <vehicle id="214" depart="214.00">
        <route edges="6 7 52"/>
    </vehicle>
    <vehicle id="215" depart="215.00">
        <route edges="15 58 66 34 76 77"/>
    </vehicle>
    <vehicle id="216" depart="216.00">
        <route edges="58 59 14 53 6 54"/>
    </vehicle>
    <vehicle id="217" depart="217.00">
        <route edges="23 64 32 67 59 14 60 68"/>
    </vehicle>
    <vehicle id="218" depart="218.00">
        <route edges="31 30 32 67 59 14 53 6 54"/>
    </vehicle>
    <vehicle id="219" depart="219.00">
        <route edges="44 52 15 58 66 34 76 77"/>
    </vehicle>
    <vehicle id="220" depart="220.00">
        <route edges="33 65 57 49 48"/>
    </vehicle>
    <vehicle id="221" depart="221.00">
        <route edges="79 71 70"/>
    </vehicle>
    <vehicle id="222" depart="222.00">
        <route edges="17 15 14"/>
    </vehicle>
    <vehicle id="223" depart="223.00">
        <route edges="28 29 63 18 19"/>
    </vehicle>
    <vehicle id="224" depart="224.00">
        <route edges="69 61 53 5"/>
    </vehicle>
    <vehicle id="225" depart="225.00">
        <route edges="62 63 55 7 52 15 13 49 41"/>
    </vehicle>
    <vehicle id="226" depart="226.00">
        <route edges="72 73 32 67 59 14 60 68"/>
    </vehicle>
    <vehicle id="227" depart="227.00">
        <route edges="52 15 13 49 1 0"/>
    </vehicle>
    <vehicle id="228" depart="228.00">
        <route edges="64 65 57 49 2"/>
    </vehicle>
    <vehicle id="229" depart="229.00">
        <route edges="12 58 66 34 69"/>
    </vehicle>
    <vehicle id="230" depart="230.00">
        <route edges="35 33 65 64"/>
    </vehicle>
    <vehicle id="231" depart="231.00">
        <route edges="48 56 64 32 34"/>
    </vehicle>
    <vehicle id="232" depart="232.00">
        <route edges="69 61 53 6 54 62 28 29"/>
    </vehicle>
    <vehicle id="233" depart="233.00">
        <route edges="39 37 35 67 23"/>
    </vehicle>
    <vehicle id="234" depart="234.00">
        <route edges="69 61 15 51 3"/>
    </vehicle>
    <vehicle id="235" depart="235.00">
        <route edges="15 58 66 33 65 57"/>
    </vehicle>
    <vehicle id="236" depart="236.00">
        <route edges="55 7 52 15 58 66 33 65"/>
    </vehicle>
    <vehicle id="237" depart="237.00">
        <route edges="16 55 7 52 15 58 66 74 75"/>
    </vehicle>
    <vehicle id="238" depart="238.00">
        <route edges="65 64 32 34 36 71 63"/>
    </vehicle>
    <vehicle id="239" depart="239.00">
        <route edges="9 7 52 15 58 66 67"/>
    </vehicle>
    <vehicle id="240" depart="240.00">
        <route edges="52 60"/>
    </vehicle>
    <vehicle id="241" depart="241.00">
        <route edges="49 48 56 64 32 34 36 38 39"/>
    </vehicle>
    <vehicle id="242" depart="242.00">
        <route edges="43 42 50 14 53 6 54 62 70 37"/>
    </vehicle>
    <vehicle id="243" depart="243.00">
        <route edges="10 12 14 53 6 8"/>
    </vehicle>
    <vehicle id="244" depart="244.00">
        <route edges="15 14 60 68"/>
    </vehicle>
    <vehicle id="245" depart="245.00">
        <route edges="10 56 64 32 34 36 78"/>
    </vehicle>
    <vehicle id="246" depart="246.00">
        <route edges="34 35 33 65 57 11"/>
    </vehicle>
    <vehicle id="247" depart="247.00">
        <route edges="55 54 62 27"/>
    </vehicle>
    <vehicle id="248" depart="248.00">
        <route edges="47 46 7 52 15 58 66 34 76 77"/>
    </vehicle>
    <vehicle id="249" depart="249.00">
        <route edges="63 55 7 52 15 14"/>
    </vehicle>
    <vehicle id="250" depart="250.00">
        <route edges="62"/>
    </vehicle>
    <vehicle id="251" depart="251.00">
        <route edges="28 29 63 55 7 52"/>
    </vehicle>
    <vehicle id="252" depart="252.00">
        <route edges="67 66 33 32"/>
    </vehicle>
    <vehicle id="253" depart="253.00">
        <route edges="61 15 13 49 2"/>
    </vehicle>
    <vehicle id="254" depart="254.00">
        <route edges="23 64 31 30"/>
    </vehicle>
    <vehicle id="255" depart="255.00">
        <route edges="75 67 59 51 43"/>
    </vehicle>
    <vehicle id="256" depart="256.00">
        <route edges="4 52 15 13 49 41"/>
    </vehicle>
    <vehicle id="257" depart="257.00">
        <route edges="58 66 34"/>
    </vehicle>
    <vehicle id="258" depart="258.00">
        <route edges="55 7 52 15 58 66 33 65 22"/>
    </vehicle>
    <vehicle id="259" depart="259.00">
        <route edges="44 52 15 58 66 33 31"/>
    </vehicle>
    <vehicle id="260" depart="260.00">
        <route edges="53 52 15 58 23"/>
    </vehicle>
    <vehicle id="261" depart="261.00">
        <route edges="68 35 67 59 14 53 6 54 18"/>
    </vehicle>
    <vehicle id="262" depart="262.00">
        <route edges="43 42 50 58 66 34 35"/>
    </vehicle>
    <vehicle id="263" depart="263.00">
        <route edges="36 37 35 33 65 64"/>
    </vehicle>
    <vehicle id="264" depart="264.00">
        <route edges="71 63 55 54"/>
    </vehicle>
    <vehicle id="265" depart="265.00">
        <route edges="74 75 33"/>
    </vehicle>
    <vehicle id="266" depart="266.00">
        <route edges="2 50 14 53 6 54 62 27"/>
    </vehicle>
    <vehicle id="267" depart="267.00">
        <route edges="72 73 32"/>
    </vehicle>
    <vehicle id="268" depart="268.00">
        <route edges="43 42 50 58 66 34 76 77"/>
    </vehicle>
    <vehicle id="269" depart="269.00">
        <route edges="61 15 51 43"/>
    </vehicle>
    <vehicle id="270" depart="270.00">
        <route edges="10 49 1"/>
    </vehicle>
    <vehicle id="271" depart="271.00">
        <route edges="64 72 73"/>
    </vehicle>
    <vehicle id="272" depart="272.00">
        <route edges="31 30 32 67 66"/>
    </vehicle>
    <vehicle id="273" depart="273.00">
        <route edges="70 38"/>
    </vehicle>
    <vehicle id="274" depart="274.00">
        <route edges="15 58 66 33 72"/>
    </vehicle>
    <vehicle id="275" depart="275.00">
        <route edges="0 48 12 51 3"/>
    </vehicle>
    <vehicle id="276" depart="276.00">
        <route edges="3 48 56 64 32 34 69"/>
    </vehicle>
    <vehicle id="277" depart="277.00">
        <route edges="18 19 55 7 52 15 58 66 33 65 21 20"/>
    </vehicle>
    <vehicle id="278" depart="278.00">
        <route edges="49 1"/>
    </vehicle>
    <vehicle id="279" depart="279.00">
        <route edges="56 64 32 34 36 38"/>
    </vehicle>
    <vehicle id="280" depart="280.00">
        <route edges="32 33 65 57 49 2"/>
    </vehicle>
    <vehicle id="281" depart="281.00">
        <route edges="46 7 52 15 13 49 48"/>
    </vehicle>
    <vehicle id="282" depart="282.00">
        <route edges="69 61 15 58 24"/>
    </vehicle>
    <vehicle id="283" depart="283.00">
        <route edges="79 71 27"/>
    </vehicle>
    <vehicle id="284" depart="284.00">
        <route edges="72 73 32 34 36 38"/>
    </vehicle>
    <vehicle id="285" depart="285.00">
        <route edges="54 62 70 38 39"/>
    </vehicle>
    <vehicle id="286" depart="286.00">
        <route edges="76 77 35 33 65 57 49 41"/>
    </vehicle>
    <vehicle id="287" depart="287.00">
        <route edges="10 56 64 32 74"/>
    </vehicle>
    <vehicle id="288" depart="288.00">
        <route edges="25 59 14 53 6 54 17"/>
    </vehicle>
    <vehicle id="289" depart="289.00">
        <route edges="25 59 51 50"/>
    </vehicle>
    <vehicle id="290" depart="290.00">
        <route edges="15 58"/>
    </vehicle>
    <vehicle id="291" depart="291.00">
        <route edges="4 52 15 58 59"/>
    </vehicle>
    <vehicle id="292" depart="292.00">
        <route edges="43 42 50 14 53 6 54 55"/>
    </vehicle>
    <vehicle id="293" depart="293.00">
        <route edges="61 15 58 66 33 31 30"/>
    </vehicle>
    <vehicle id="294" depart="294.00">
        <route edges="60 61 15 58 23"/>
    </vehicle>
    <vehicle id="295" depart="295.00">
        <route edges="20 64 32 34 36"/>
    </vehicle>
    <vehicle id="296" depart="296.00">
        <route edges="2 50 14 53 6 54"/>
    </vehicle>
    <vehicle id="297" depart="297.00">
        <route edges="19 55 7 52 15 13 49"/>
    </vehicle>
    <vehicle id="298" depart="298.00">
        <route edges="62 63 55 7 52 15 58"/>
    </vehicle>
    <vehicle id="299" depart="299.00">
        <route edges="41 40 1"/>
    </vehicle>
    <vehicle id="300" depart="300.00">
        <route edges="59 13 56"/>
    </vehicle>
    <vehicle id="301" depart="301.00">
        <route edges="3 48 56 64 31 30"/>
    </vehicle>
    <vehicle id="302" depart="302.00">
        <route edges="16 55 7 52 15 58 66 34 76"/>
    </vehicle>
    <vehicle id="303" depart="303.00">
        <route edges="58 59 13 49 1 0"/>
    </vehicle>
    <vehicle id="304" depart="304.00">
        <route edges="45 44 52 15"/>
    </vehicle>
    <vehicle id="305" depart="305.00">
        <route edges="7 6 54 62 70"/>
    </vehicle>
    <vehicle id="306" depart="306.00">
        <route edges="54 18"/>
    </vehicle>
    <vehicle id="307" depart="307.00">
        <route edges="79 71 63 55 7 52 15"/>
    </vehicle>
    <vehicle id="308" depart="308.00">
        <route edges="57 12 14 53 45 44"/>