<edges><edge id="0" from="6" to="7" priority="24" numLanes="1" speed="65.548523"/>
<edge id="1" from="7" to="6" priority="24" numLanes="1" speed="65.548523"/>
<edge id="2" from="7" to="8" priority="71" numLanes="1" speed="0.108630"/>
<edge id="3" from="8" to="7" priority="71" numLanes="1" speed="0.108630"/>
<edge id="4" from="8" to="9" priority="48" numLanes="1" speed="13.269979"/>
<edge id="5" from="9" to="8" priority="48" numLanes="1" speed="13.269979"/>
<edge id="6" from="9" to="10" priority="23" numLanes="1" speed="67.998273"/>
<edge id="7" from="10" to="9" priority="23" numLanes="1" speed="67.998273"/>
<edge id="8" from="10" to="11" priority="1" numLanes="1" speed="69.559711"/>
<edge id="9" from="11" to="10" priority="1" numLanes="1" speed="69.559711"/>
<edge id="10" from="12" to="13" priority="82" numLanes="1" speed="98.815491"/>
<edge id="11" from="13" to="12" priority="82" numLanes="1" speed="98.815491"/>
<edge id="12" from="13" to="14" priority="43" numLanes="1" speed="13.217515"/>
<edge id="13" from="14" to="13" priority="43" numLanes="1" speed="13.217515"/>
<edge id="14" from="14" to="15" priority="8" numLanes="1" speed="38.306993"/>
<edge id="15" from="15" to="14" priority="8" numLanes="1" speed="38.306993"/>
<edge id="16" from="15" to="16" priority="74" numLanes="1" speed="10.242717"/>
<edge id="17" from="16" to="15" priority="74" numLanes="1" speed="10.242717"/>
<edge id="18" from="16" to="17" priority="32" numLanes="1" speed="88.098899"/>
<edge id="19" from="17" to="16" priority="32" numLanes="1" speed="88.098899"/>
<edge id="20" from="18" to="19" priority="14" numLanes="1" speed="77.346048"/>
<edge id="21" from="19" to="18" priority="14" numLanes="1" speed="77.346048"/>
<edge id="22" from="19" to="20" priority="76" numLanes="1" speed="13.314623"/>
<edge id="23" from="20" to="19" priority="76" numLanes="1" speed="13.314623"/>
<edge id="24" from="20" to="21" priority="100" numLanes="1" speed="14.285307"/>
<edge id="25" from="21" to="20" priority="100" numLanes="1" speed="14.285307"/>
<edge id="26" from="21" to="22" priority="54" numLanes="1" speed="0.847474"/>
<edge id="27" from="22" to="21" priority="54" numLanes="1" speed="0.847474"/>
<edge id="28" from="22" to="23" priority="66" numLanes="1" speed="44.009942"/>
<edge id="29" from="23" to="22" priority="66" numLanes="1" speed="44.009942"/>
<edge id="30" from="24" to="25" priority="73" numLanes="1" speed="62.808004"/>
<edge id="31" from="25" to="24" priority="73" numLanes="1" speed="62.808004"/>
<edge id="32" from="25" to="26" priority="16" numLanes="1" speed="41.170989"/>
<edge id="33" from="26" to="25" priority="16" numLanes="1" speed="41.170989"/>
<edge id="34" from="26" to="27" priority="69" numLanes="1" speed="85.996252"/>
<edge id="35" from="27" to="26" priority="69" numLanes="1" speed="85.996252"/>
<edge id="36" from="27" to="28" priority="9" numLanes="1" speed="10.046511"/>
<edge id="37" from="28" to="27" priority="9" numLanes="1" speed="10.046511"/>
<edge id="38" from="28" to="29" priority="76" numLanes="1" speed="58.957392"/>
<edge id="39" from="29" to="28" priority="76" numLanes="1" speed="58.957392"/>
<edge id="40" from="1" to="7" priority="39" numLanes="1" speed="96.324871"/>
<edge id="41" from="7" to="1" priority="39" numLanes="1" speed="96.324871"/>
<edge id="42" from="2" to="8" priority="32" numLanes="1" speed="13.983019"/>
<edge id="43" from="8" to="2" priority="32" numLanes="1" speed="13.983019"/>
<edge id="44" from="3" to="9" priority="28" numLanes="1" speed="8.424872"/>
<edge id="45" from="9" to="3" priority="28" numLanes="1" speed="8.424872"/>
<edge id="46" from="4" to="10" priority="56" numLanes="1" speed="60.000787"/>
<edge id="47" from="10" to="4" priority="56" numLanes="1" speed="60.000787"/>
<edge id="48" from="7" to="13" priority="61" numLanes="1" speed="77.896965"/>
<edge id="49" from="13" to="7" priority="61" numLanes="1" speed="77.896965"/>
<edge id="50" from="8" to="14" priority="70" numLanes="1" speed="84.789210"/>
<edge id="51" from="14" to="8" priority="70" numLanes="1" speed="84.789210"/>
<edge id="52" from="9" to="15" priority="66" numLanes="1" speed="30.164933"/>
<edge id="53" from="15" to="9" priority="66" numLanes="1" speed="30.164933"/>
<edge id="54" from="10" to="16" priority="52" numLanes="1" speed="50.952257"/>
<edge id="55" from="16" to="10" priority="52" numLanes="1" speed="50.952257"/>
<edge id="56" from="13" to="19" priority="75" numLanes="1" speed="29.554205"/>
<edge id="57" from="19" to="13" priority="75" numLanes="1" speed="29.554205"/>
<edge id="58" from="14" to="20" priority="6" numLanes="1" speed="89.791256"/>
<edge id="59" from="20" to="14" priority="6" numLanes="1" speed="89.791256"/>
<edge id="60" from="15" to="21" priority="96" numLanes="1" speed="49.488772"/>
<edge id="61" from="21" to="15" priority="96" numLanes="1" speed="49.488772"/>
<edge id="62" from="16" to="22" priority="12" numLanes="1" speed="49.958254"/>
<edge id="63" from="22" to="16" priority="12" numLanes="1" speed="49.958254"/>
<edge id="64" from="19" to="25" priority="60" numLanes="1" speed="52.828650"/>
<edge id="65" from="25" to="19" priority="60" numLanes="1" speed="52.828650"/>
<edge id="66" from="20" to="26" priority="98" numLanes="1" speed="98.688253"/>
<edge id="67" from="26" to="20" priority="98" numLanes="1" speed="98.688253"/>
<edge id="68" from="21" to="27" priority="94" numLanes="1" speed="13.198288"/>
<edge id="69" from="27" to="21" priority="94" numLanes="1" speed="13.198288"/>
<edge id="70" from="22" to="28" priority="87" numLanes="1" speed="56.838039"/>
<edge id="71" from="28" to="22" priority="87" numLanes="1" speed="56.838039"/>
<edge id="72" from="25" to="31" priority="37" numLanes="1" speed="68.294205"/>
<edge id="73" from="31" to="25" priority="37" numLanes="1" speed="68.294205"/>
<edge id="74" from="26" to="32" priority="77" numLanes="1" speed="95.445298"/>
<edge id="75" from="32" to="26" priority="77" numLanes="1" speed="95.445298"/>
<edge id="76" from="27" to="33" priority="78" numLanes="1" speed="1.668940"/>
<edge id="77" from="33" to="27" priority="78" numLanes="1" speed="1.668940"/>
<edge id="78" from="28" to="34" priority="7" numLanes="1" speed="26.218528"/>
<edge id="79" from="34" to="28" priority="7" numLanes="1" speed="26.218528"/>
</edges>