<edges><edge id="0" from="6" to="7" priority="52" numLanes="1" speed="23.167097"/>
<edge id="1" from="7" to="6" priority="52" numLanes="1" speed="23.167097"/>
<edge id="2" from="7" to="8" priority="17" numLanes="1" speed="3.606113"/>
<edge id="3" from="8" to="7" priority="17" numLanes="1" speed="3.606113"/>
<edge id="4" from="8" to="9" priority="24" numLanes="1" speed="0.028727"/>
<edge id="5" from="9" to="8" priority="24" numLanes="1" speed="0.028727"/>
<edge id="6" from="9" to="10" priority="16" numLanes="1" speed="99.681714"/>
<edge id="7" from="10" to="9" priority="16" numLanes="1" speed="99.681714"/>
<edge id="8" from="10" to="11" priority="78" numLanes="1" speed="35.312766"/>
<edge id="9" from="11" to="10" priority="78" numLanes="1" speed="35.312766"/>
<edge id="10" from="12" to="13" priority="40" numLanes="1" speed="58.608017"/>
<edge id="11" from="13" to="12" priority="40" numLanes="1" speed="58.608017"/>
<edge id="12" from="13" to="14" priority="52" numLanes="1" speed="73.692554"/>
<edge id="13" from="14" to="13" priority="52" numLanes="1" speed="73.692554"/>
<edge id="14" from="14" to="15" priority="7" numLanes="1" speed="9.016586"/>
<edge id="15" from="15" to="14" priority="7" numLanes="1" speed="9.016586"/>
<edge id="16" from="15" to="16" priority="29" numLanes="1" speed="82.976480"/>
<edge id="17" from="16" to="15" priority="29" numLanes="1" speed="82.976480"/>
<edge id="18" from="16" to="17" priority="92" numLanes="1" speed="34.809525"/>
<edge id="19" from="17" to="16" priority="92" numLanes="1" speed="34.809525"/>
<edge id="20" from="18" to="19" priority="97" numLanes="1" speed="27.650785"/>
<edge id="21" from="19" to="18" priority="97" numLanes="1" speed="27.650785"/>
<edge id="22" from="19" to="20" priority="61" numLanes="1" speed="19.452519"/>
<edge id="23" from="20" to="19" priority="61" numLanes="1" speed="19.452519"/>
<edge id="24" from="20" to="21" priority="93" numLanes="1" speed="57.490672"/>
<edge id="25" from="21" to="20" priority="93" numLanes="1" speed="57.490672"/>
<edge id="26" from="21" to="22" priority="27" numLanes="1" speed="40.713463"/>
<edge id="27" from="22" to="21" priority="27" numLanes="1" speed="40.713463"/>
<edge id="28" from="22" to="23" priority="11" numLanes="1" speed="7.238597"/>
<edge id="29" from="23" to="22" priority="11" numLanes="1" speed="7.238597"/>
<edge id="30" from="24" to="25" priority="30" numLanes="1" speed="94.701547"/>
<edge id="31" from="25" to="24" priority="30" numLanes="1" speed="94.701547"/>
<edge id="32" from="25" to="26" priority="81" numLanes="1" speed="95.670935"/>
<edge id="33" from="26" to="25" priority="81" numLanes="1" speed="95.670935"/>
<edge id="34" from="26" to="27" priority="88" numLanes="1" speed="81.314735"/>
<edge id="35" from="27" to="26" priority="88" numLanes="1" speed="81.314735"/>
<edge id="36" from="27" to="28" priority="58" numLanes="1" speed="69.419186"/>
<edge id="37" from="28" to="27" priority="58" numLanes="1" speed="69.419186"/>
<edge id="38" from="28" to="29" priority="97" numLanes="1" speed="56.316860"/>
<edge id="39" from="29" to="28" priority="97" numLanes="1" speed="56.316860"/>
<edge id="40" from="1" to="7" priority="77" numLanes="1" speed="75.747329"/>
<edge id="41" from="7" to="1" priority="77" numLanes="1" speed="75.747329"/>
<edge id="42" from="2" to="8" priority="97" numLanes="1" speed="45.884843"/>
<edge id="43" from="8" to="2" priority="97" numLanes="1" speed="45.884843"/>
<edge id="44" from="3" to="9" priority="47" numLanes="1" speed="58.682652"/>
<edge id="45" from="9" to="3" priority="47" numLanes="1" speed="58.682652"/>
<edge id="46" from="4" to="10" priority="3" numLanes="1" speed="11.626830"/>
<edge id="47" from="10" to="4" priority="3" numLanes="1" speed="11.626830"/>
<edge id="48" from="7" to="13" priority="7" numLanes="1" speed="63.366180"/>
<edge id="49" from="13" to="7" priority="7" numLanes="1" speed="63.366180"/>
<edge id="50" from="8" to="14" priority="100" numLanes="1" speed="67.691298"/>
<edge id="51" from="14" to="8" priority="100" numLanes="1" speed="67.691298"/>
<edge id="52" from="9" to="15" priority="23" numLanes="1" speed="31.573069"/>
<edge id="53" from="15" to="9" priority="23" numLanes="1" speed="31.573069"/>
<edge id="54" from="10" to="16" priority="96" numLanes="1" speed="51.650422"/>
<edge id="55" from="16" to="10" priority="96" numLanes="1" speed="51.650422"/>
<edge id="56" from="13" to="19" priority="1" numLanes="1" speed="83.217704"/>
<edge id="57" from="19" to="13" priority="1" numLanes="1" speed="83.217704"/>
<edge id="58" from="14" to="20" priority="25" numLanes="1" speed="9.300943"/>
<edge id="59" from="20" to="14" priority="25" numLanes="1" speed="9.300943"/>
<edge id="60" from="15" to="21" priority="68" numLanes="1" speed="82.107469"/>
<edge id="61" from="21" to="15" priority="68" numLanes="1" speed="82.107469"/>
<edge id="62" from="16" to="22" priority="8" numLanes="1" speed="93.139624"/>
<edge id="63" from="22" to="16" priority="8" numLanes="1" speed="93.139624"/>
<edge id="64" from="19" to="25" priority="48" numLanes="1" speed="35.353793"/>
<edge id="65" from="25" to="19" priority="48" numLanes="1" speed="35.353793"/>
<edge id="66" from="20" to="26" priority="90" numLanes="1" speed="26.907578"/>
<edge id="67" from="26" to="20" priority="90" numLanes="1" speed="26.907578"/>
<edge id="68" from="21" to="27" priority="95" numLanes="1" speed="68.310731"/>
<edge id="69" from="27" to="21" priority="95" numLanes="1" speed="68.310731"/>
<edge id="70" from="22" to="28" priority="91" numLanes="1" speed="49.899934"/>
<edge id="71" from="28" to="22" priority="91" numLanes="1" speed="49.899934"/>
<edge id="72" from="25" to="31" priority="20" numLanes="1" speed="73.542907"/>
<edge id="73" from="31" to="25" priority="20" numLanes="1" speed="73.542907"/>
<edge id="74" from="26" to="32" priority="88" numLanes="1" speed="20.677863"/>
<edge id="75" from="32" to="26" priority="88" numLanes="1" speed="20.677863"/>
<edge id="76" from="27" to="33" priority="21" numLanes="1" speed="24.969543"/>
<edge id="77" from="33" to="27" priority="21" numLanes="1" speed="24.969543"/>
<edge id="78" from="28" to="34" priority="62" numLanes="1" speed="15.599557"/>
<edge id="79" from="34" to="28" priority="62" numLanes="1" speed="15.599557"/>
</edges>