<routes>
<vType id="0" accel="0.115020" decel="0.660895" sigma="0.847692" length="1.585254" width="2.147822" minGap="9.272042" maxSpeed="2.215173" guiShape="passenger/van"/>
<vType id="1" accel="1.271061" decel="0.178291" sigma="0.677564" length="6.033322" width="3.654251" minGap="4.433099" maxSpeed="0.488193" guiShape="rail/light"/>
<vType id="2" accel="0.504568" decel="1.219173" sigma="0.659724" length="1.095459" width="4.455280" minGap="8.156482" maxSpeed="4.400891" guiShape="bus/flexible"/>
<vType id="3" accel="0.712252" decel="1.878290" sigma="0.782929" length="5.086691" width="3.953743" minGap="2.732332" maxSpeed="0.522421" guiShape="bus/flexible"/>
<vType id="4" accel="0.181712" decel="1.589362" sigma="0.193615" length="6.158909" width="6.736274" minGap="3.306575" maxSpeed="2.110825" guiShape="rail"/>
<vType id="5" accel="0.917017" decel="0.524147" sigma="0.797026" length="1.544421" width="3.805002" minGap="4.922633" maxSpeed="4.799109" guiShape="rail/light"/>
<vType id="6" accel="0.656817" decel="1.776183" sigma="0.775496" length="2.326682" width="3.778070" minGap="4.086103" maxSpeed="1.850462" guiShape="bicycle"/>
<vType id="7" accel="1.193558" decel="1.372686" sigma="0.057318" length="5.563971" width="8.516574" minGap="8.728320" maxSpeed="2.116085" guiShape="passenger/hatchback"/>
<vType id="8" accel="0.440725" decel="1.821575" sigma="0.785264" length="4.073967" width="7.010741" minGap="7.253034" maxSpeed="4.909797" guiShape="bus/flexible"/>
<vType id="9" accel="0.695734" decel="1.177901" sigma="0.963065" length="6.544928" width="4.768258" minGap="2.460520" maxSpeed="2.276967" guiShape="rail/city"/>
<route id="0" edges="0 2 4 6 8"/>
<route id="1" edges="1"/>
<route id="2" edges="2 4 6 8"/>
<route id="3" edges="3 1"/>
<route id="4" edges="4 6 8"/>
<route id="5" edges="5 3 41"/>
<route id="6" edges="6 8"/>
<route id="7" edges="7 5 43"/>
<route id="8" edges="8"/>
<route id="9" edges="9 7 45"/>
<route id="10" edges="10 12 14 16 18"/>
<route id="11" edges="11"/>
<route id="12" edges="12 14 16 18"/>
<route id="13" edges="13 11"/>
<route id="14" edges="14 16 18"/>
<route id="15" edges="15 13 49 1"/>
<route id="16" edges="16 18"/>
<route id="17" edges="17 15 51 3 41"/>
<route id="18" edges="18"/>
<route id="19" edges="19 17 53 5 43"/>
<route id="20" edges="20 22 24 26 28"/>
<route id="21" edges="21"/>
<route id="22" edges="22 24 26 28"/>
<route id="23" edges="23 21"/>
<route id="24" edges="24 26 28"/>
<route id="25" edges="25 23 57 11"/>
<route id="26" edges="26 28"/>
<route id="27" edges="27 25 59 13 49 1"/>
<route id="28" edges="28"/>
<route id="29" edges="29 27 61 15 51 3 41"/>
<route id="30" edges="30 32 34 36 38"/>
<route id="31" edges="31"/>
<route id="32" edges="32 34 36 38"/>
<route id="33" edges="33 31"/>
<route id="34" edges="34 36 38"/>
<route id="35" edges="35 33 65 21"/>
<route id="36" edges="36 38"/>
<route id="37" edges="37 35 67 23 57 11"/>
<route id="38" edges="38"/>
<route id="39" edges="39 37 69 25 59 13 49 1"/>
<route id="40" edges="40 1"/>
<route id="41" edges="41"/>
<route id="42" edges="42 3 41"/>
<route id="43" edges="43"/>
<route id="44" edges="44 5 43"/>
<route id="45" edges="45"/>
<route id="46" edges="46 7 45"/>
<route id="47" edges="47"/>
<route id="48" edges="48 11"/>
<route id="49" edges="49 1"/>
<route id="50" edges="50 13 49 1"/>
<route id="51" edges="51 3 41"/>
<route id="52" edges="52 15 51 3 41"/>
<route id="53" edges="53 5 43"/>
<route id="54" edges="54 17 53 5 43"/>
<route id="55" edges="55 7 45"/>
<route id="56" edges="56 21"/>
<route id="57" edges="57 11"/>
<route id="58" edges="58 23 57 11"/>
<route id="59" edges="59 13 49 1"/>
<route id="60" edges="60 25 59 13 49 1"/>
<route id="61" edges="61 15 51 3 41"/>
<route id="62" edges="62 27 61 15 51 3 41"/>
<route id="63" edges="63 17 53 5 43"/>
<route id="64" edges="64 31"/>
<route id="65" edges="65 21"/>
<route id="66" edges="66 33 65 21"/>
<route id="67" edges="67 23 57 11"/>
<route id="68" edges="68 35 67 23 57 11"/>
<route id="69" edges="69 25 59 13 49 1"/>
<route id="70" edges="70 37 69 25 59 13 49 1"/>
<route id="71" edges="71 27 61 15 51 3 41"/>
<route id="72" edges="72"/>
<route id="73" edges="73 31"/>
<route id="74" edges="74"/>
<route id="75" edges="75 33 65 21"/>
<route id="76" edges="76"/>
<route id="77" edges="77 35 67 23 57 11"/>
<route id="78" edges="78"/>
<route id="79" edges="79 37 69 25 59 13 49 1"/>
<vehicle id="797" type="7" route="10" depart="0.012856"/>
<vehicle id="188" type="9" route="65" depart="0.568288"/>
<vehicle id="0" type="1" route="18" depart="1.330946"/>
<vehicle id="359" type="3" route="28" depart="1.855588"/>
<vehicle id="79" type="7" route="22" depart="2.679591"/>
<vehicle id="553" type="3" route="65" depart="2.859461"/>
<vehicle id="267" type="7" route="59" depart="3.287705"/>
<vehicle id="685" type="1" route="4" depart="3.742570"/>
<vehicle id="98" type="8" route="32" depart="3.865450"/>
<vehicle id="504" type="7" route="40" depart="3.912327"/>
<vehicle id="732" type="9" route="12" depart="4.584538"/>
<vehicle id="702" type="9" route="5" depart="4.726118"/>
<vehicle id="742" type="5" route="29" depart="4.881979"/>
<vehicle id="588" type="9" route="46" depart="5.173566"/>
<vehicle id="214" type="9" route="65" depart="5.986909"/>
<vehicle id="487" type="1" route="79" depart="6.175675"/>
<vehicle id="376" type="1" route="9" depart="7.614794"/>
<vehicle id="635" type="4" route="39" depart="7.904509"/>
<vehicle id="461" type="2" route="73" depart="8.640313"/>
<vehicle id="991" type="1" route="66" depart="9.279830"/>
<vehicle id="313" type="9" route="35" depart="9.327551"/>
<vehicle id="494" type="7" route="30" depart="9.484878"/>
<vehicle id="781" type="4" route="33" depart="9.962258"/>
<vehicle id="623" type="6" route="47" depart="10.014600"/>
<vehicle id="713" type="9" route="15" depart="10.291050"/>
<vehicle id="643" type="9" route="16" depart="10.639887"/>
<vehicle id="7" type="7" route="4" depart="10.686806"/>
<vehicle id="68" type="1" route="44" depart="11.541295"/>
<vehicle id="503" type="2" route="70" depart="11.562879"/>
<vehicle id="941" type="2" route="66" depart="11.735830"/>
<vehicle id="658" type="1" route="14" depart="12.153604"/>
<vehicle id="963" type="7" route="10" depart="12.267241"/>
<vehicle id="862" type="7" route="61" depart="12.730347"/>
<vehicle id="722" type="2" route="5" depart="12.847665"/>
<vehicle id="387" type="3" route="11" depart="13.811915"/>
<vehicle id="425" type="1" route="19" depart="14.072643"/>
<vehicle id="762" type="8" route="2" depart="14.743114"/>
<vehicle id="755" type="9" route="25" depart="14.795992"/>
<vehicle id="865" type="9" route="22" depart="15.026752"/>
<vehicle id="926" type="8" route="46" depart="15.104011"/>
<vehicle id="451" type="7" route="51" depart="15.746415"/>
<vehicle id="408" type="2" route="57" depart="15.771998"/>
<vehicle id="898" type="8" route="31" depart="15.989598"/>
<vehicle id="969" type="6" route="79" depart="16.285571"/>
<vehicle id="19" type="9" route="20" depart="16.630269"/>
<vehicle id="394" type="4" route="26" depart="17.120302"/>
<vehicle id="924" type="2" route="49" depart="17.848683"/>
<vehicle id="389" type="6" route="8" depart="18.343932"/>
<vehicle id="946" type="8" route="42" depart="18.515341"/>
<vehicle id="110" type="4" route="25" depart="18.869492"/>
<vehicle id="255" type="8" route="56" depart="18.923870"/>
<vehicle id="792" type="7" route="59" depart="19.087296"/>
<vehicle id="763" type="3" route="47" depart="19.149582"/>
<vehicle id="21" type="8" route="26" depart="19.173231"/>
<vehicle id="888" type="7" route="40" depart="19.439112"/>
<vehicle id="788" type="5" route="5" depart="19.689392"/>
<vehicle id="868" type="9" route="2" depart="19.928357"/>
<vehicle id="432" type="6" route="26" depart="20.614835"/>
<vehicle id="193" type="8" route="15" depart="21.233543"/>
<vehicle id="199" type="7" route="8" depart="21.980328"/>
<vehicle id="241" type="6" route="1" depart="22.278577"/>
<vehicle id="921" type="6" route="25" depart="23.055656"/>
<vehicle id="831" type="7" route="34" depart="23.173165"/>
<vehicle id="315" type="1" route="44" depart="23.745369"/>
<vehicle id="846" type="6" route="11" depart="24.175684"/>
<vehicle id="123" type="6" route="30" depart="24.239257"/>
<vehicle id="412" type="7" route="72" depart="24.375059"/>
<vehicle id="100" type="7" route="39" depart="24.565382"/>
<vehicle id="568" type="6" route="7" depart="24.933258"/>
<vehicle id="446" type="4" route="49" depart="25.003483"/>
<vehicle id="71" type="3" route="53" depart="25.192596"/>
<vehicle id="147" type="1" route="69" depart="25.194571"/>
<vehicle id="847" type="4" route="30" depart="25.512342"/>
<vehicle id="162" type="4" route="48" depart="25.898274"/>
<vehicle id="669" type="8" route="68" depart="26.936711"/>
<vehicle id="537" type="2" route="49" depart="26.999384"/>
<vehicle id="636" type="1" route="76" depart="27.472567"/>
<vehicle id="473" type="8" route="57" depart="27.493017"/>
<vehicle id="93" type="5" route="79" depart="27.552109"/>
<vehicle id="930" type="6" route="28" depart="27.892491"/>
<vehicle id="701" type="7" route="17" depart="28.086022"/>
<vehicle id="624" type="7" route="73" depart="28.358102"/>
<vehicle id="336" type="3" route="8" depart="28.610952"/>
<vehicle id="217" type="4" route="49" depart="29.292923"/>
<vehicle id="958" type="3" route="25" depart="29.342145"/>
<vehicle id="39" type="6" route="29" depart="29.670664"/>
<vehicle id="699" type="3" route="24" depart="29.805939"/>
<vehicle id="307" type="9" route="32" depart="29.971467"/>
<vehicle id="896" type="4" route="66" depart="30.417586"/>
<vehicle id="361" type="1" route="39" depart="30.507761"/>
<vehicle id="767" type="7" route="13" depart="30.961248"/>
<vehicle id="571" type="3" route="66" depart="33.278854"/>
<vehicle id="633" type="3" route="71" depart="33.399771"/>
<vehicle id="67" type="5" route="71" depart="33.566942"/>
<vehicle id="739" type="2" route="12" depart="33.807636"/>
<vehicle id="728" type="6" route="58" depart="33.927324"/>
<vehicle id="798" type="6" route="10" depart="34.870909"/>
<vehicle id="398" type="4" route="25" depart="34.879400"/>
<vehicle id="977" type="6" route="75" depart="34.883497"/>
<vehicle id="717" type="1" route="22" depart="35.212571"/>
<vehicle id="41" type="8" route="74" depart="35.427279"/>
<vehicle id="618" type="5" route="35" depart="35.848053"/>
<vehicle id="103" type="2" route="2" depart="36.185444"/>
<vehicle id="723" type="3" route="6" depart="36.371517"/>
<vehicle id="465" type="2" route="9" depart="36.625052"/>
<vehicle id="459" type="2" route="66" depart="37.013512"/>
<vehicle id="631" type="6" route="46" depart="37.230923"/>
<vehicle id="598" type="9" route="64" depart="37.372334"/>
<vehicle id="471" type="8" route="28" depart="37.412123"/>
<vehicle id="632" type="5" route="48" depart="38.547595"/>
<vehicle id="690" type="3" route="63" depart="39.889295"/>
<vehicle id="855" type="1" route="56" depart="39.914810"/>
<vehicle id="12" type="4" route="63" depart="39.948843"/>
<vehicle id="464" type="8" route="66" depart="40.467122"/>
<vehicle id="351" type="4" route="30" depart="40.764063"/>
<vehicle id="581" type="2" route="69" depart="40.898475"/>
<vehicle id="894" type="6" route="36" depart="41.125909"/>
<vehicle id="5" type="1" route="3" depart="41.468145"/>
<vehicle id="237" type="8" route="18" depart="41.648387"/>
<vehicle id="239" type="9" route="59" depart="41.798241"/>
<vehicle id="984" type="1" route="23" depart="42.678388"/>
<vehicle id="967" type="6" route="57" depart="42.850672"/>
<vehicle id="279" type="6" route="30" depart="43.200139"/>
<vehicle id="961" type="8" route="2" depart="43.483984"/>
<vehicle id="119" type="5" route="75" depart="43.489426"/>
<vehicle id="800" type="4" route="5" depart="43.852109"/>
<vehicle id="882" type="6" route="38" depart="44.055489"/>
<vehicle id="250" type="3" route="79" depart="44.447045"/>
<vehicle id="362" type="5" route="13" depart="44.583353"/>
<vehicle id="604" type="2" route="38" depart="44.798602"/>
<vehicle id="314" type="6" route="7" depart="44.863641"/>
<vehicle id="955" type="6" route="66" depart="45.101253"/>
<vehicle id="879" type="8" route="7" depart="45.617722"/>
<vehicle id="784" type="3" route="41" depart="45.818950"/>
<vehicle id="222" type="8" route="40" depart="46.030088"/>
<vehicle id="548" type="8" route="73" depart="46.434326"/>
<vehicle id="625" type="4" route="59" depart="46.997285"/>
<vehicle id="262" type="8" route="32" depart="47.124246"/>
<vehicle id="972" type="3" route="38" depart="48.457994"/>
<vehicle id="890" type="3" route="17" depart="49.367336"/>
<vehicle id="778" type="8" route="35" depart="49.899555"/>
<vehicle id="209" type="7" route="71" depart="49.990690"/>
<vehicle id="858" type="4" route="61" depart="50.143906"/>
<vehicle id="148" type="2" route="51" depart="50.951524"/>
<vehicle id="747" type="8" route="53" depart="50.987925"/>
<vehicle id="452" type="3" route="7" depart="51.348818"/>
<vehicle id="16" type="8" route="6" depart="51.995608"/>
<vehicle id="711" type="8" route="52" depart="53.024304"/>
<vehicle id="474" type="1" route="74" depart="53.511461"/>
<vehicle id="50" type="5" route="61" depart="53.741212"/>
<vehicle id="644" type="1" route="41" depart="54.844566"/>
<vehicle id="312" type="6" route="34" depart="55.256908"/>
<vehicle id="706" type="3" route="36" depart="55.439613"/>
<vehicle id="457" type="2" route="27" depart="55.624797"/>
<vehicle id="163" type="2" route="38" depart="55.700804"/>
<vehicle id="440" type="8" route="60" depart="56.030932"/>
<vehicle id="562" type="3" route="4" depart="56.066802"/>
<vehicle id="73" type="8" route="33" depart="56.532764"/>
<vehicle id="554" type="8" route="23" depart="56.954089"/>
<vehicle id="826" type="1" route="68" depart="57.304683"/>
<vehicle id="420" type="3" route="15" depart="57.601100"/>
<vehicle id="370" type="7" route="72" depart="57.712500"/>
<vehicle id="574" type="5" route="55" depart="57.848098"/>
<vehicle id="909" type="6" route="41" depart="58.517593"/>
<vehicle id="513" type="6" route="66" depart="59.336769"/>
<vehicle id="337" type="7" route="75" depart="59.440725"/>
<vehicle id="586" type="4" route="44" depart="59.796370"/>
<vehicle id="196" type="6" route="69" depart="59.805408"/>
<vehicle id="116" type="8" route="14" depart="60.137012"/>
<vehicle id="224" type="5" route="70" depart="60.499026"/>
<vehicle id="190" type="6" route="58" depart="61.428332"/>
<vehicle id="323" type="6" route="71" depart="61.469070"/>
<vehicle id="805" type="8" route="52" depart="61.479177"/>
<vehicle id="424" type="7" route="44" depart="61.599275"/>
<vehicle id="673" type="4" route="10" depart="61.610302"/>
<vehicle id="126" type="9" route="68" depart="61.725280"/>
<vehicle id="72" type="1" route="41" depart="61.857258"/>
<vehicle id="120" type="2" route="29" depart="62.503761"/>
<vehicle id="593" type="7" route="9" depart="63.292970"/>
<vehicle id="152" type="7" route="20" depart="63.516782"/>
<vehicle id="733" type="5" route="27" depart="63.905419"/>
<vehicle id="445" type="1" route="13" depart="63.984337"/>
<vehicle id="468" type="9" route="48" depart="64.104400"/>
<vehicle id="543" type="4" route="8" depart="64.507051"/>
<vehicle id="271" type="1" route="77" depart="64.667837"/>
<vehicle id="638" type="9" route="64" depart="64.730317"/>
<vehicle id="661" type="4" route="3" depart="64.765525"/>
<vehicle id="385" type="7" route="40" depart="65.227770"/>
<vehicle id="442" type="9" route="8" depart="65.344876"/>
<vehicle id="499" type="8" route="12" depart="65.672824"/>
<vehicle id="331" type="6" route="56" depart="65.917629"/>
<vehicle id="510" type="6" route="18" depart="66.129758"/>
<vehicle id="804" type="4" route="51" depart="66.530827"/>
<vehicle id="842" type="5" route="6" depart="66.709568"/>
<vehicle id="69" type="7" route="39" depart="67.209158"/>
<vehicle id="731" type="3" route="6" depart="67.443988"/>
<vehicle id="54" type="8" route="25" depart="67.624759"/>
<vehicle id="703" type="2" route="65" depart="67.650275"/>
<vehicle id="709" type="5" route="62" depart="67.663250"/>
<vehicle id="443" type="2" route="69" depart="67.989572"/>
<vehicle id="687" type="4" route="14" depart="68.817490"/>
<vehicle id="17" type="9" route="63" depart="69.005265"/>
<vehicle id="310" type="9" route="56" depart="69.345871"/>
<vehicle id="614" type="3" route="77" depart="69.357745"/>
<vehicle id="650" type="5" route="32" depart="69.499526"/>
<vehicle id="874" type="9" route="30" depart="69.712426"/>
<vehicle id="169" type="4" route="45" depart="69.922152"/>
<vehicle id="514" type="8" route="52" depart="70.103012"/>
<vehicle id="523" type="3" route="32" depart="70.158134"/>
<vehicle id="220" type="7" route="24" depart="70.227704"/>
<vehicle id="261" type="3" route="56" depart="70.233184"/>
<vehicle id="768" type="3" route="79" depart="70.821869"/>
<vehicle id="671" type="3" route="26" depart="70.964371"/>
<vehicle id="191" type="4" route="56" depart="71.287390"/>
<vehicle id="368" type="4" route="69" depart="71.447262"/>
<vehicle id="559" type="9" route="61" depart="71.809560"/>
<vehicle id="42" type="1" route="4" depart="72.110375"/>
<vehicle id="837" type="4" route="23" depart="72.429387"/>
<vehicle id="455" type="4" route="56" depart="72.835791"/>
<vehicle id="137" type="3" route="12" depart="73.578719"/>
<vehicle id="3" type="3" route="59" depart="73.913890"/>
<vehicle id="726" type="8" route="22" depart="74.053935"/>
<vehicle id="293" type="2" route="11" depart="74.242764"/>
<vehicle id="118" type="6" route="15" depart="74.562954"/>
<vehicle id="23" type="9" route="70" depart="75.325526"/>
<vehicle id="55" type="7" route="56" depart="75.450511"/>
<vehicle id="301" type="4" route="43" depart="75.542222"/>
<vehicle id="982" type="7" route="79" depart="75.845048"/>
<vehicle id="509" type="9" route="10" depart="76.271128"/>
<vehicle id="304" type="9" route="48" depart="77.774388"/>
<vehicle id="107" type="1" route="54" depart="77.819940"/>
<vehicle id="106" type="2" route="29" depart="78.002076"/>
<vehicle id="645" type="8" route="10" depart="78.104803"/>
<vehicle id="919" type="5" route="67" depart="78.423300"/>
<vehicle id="266" type="3" route="12" depart="78.529130"/>
<vehicle id="707" type="5" route="73" depart="78.762539"/>
<vehicle id="769" type="6" route="7" depart="78.788796"/>
<vehicle id="433" type="8" route="66" depart="78.940653"/>
<vehicle id="30" type="6" route="3" depart="79.029462"/>
<vehicle id="423" type="5" route="24" depart="79.321078"/>
<vehicle id="229" type="9" route="61" depart="79.335373"/>
<vehicle id="607" type="1" route="30" depart="80.617176"/>
<vehicle id="317" type="3" route="69" depart="81.275569"/>
<vehicle id="698" type="3" route="58" depart="81.298987"/>
<vehicle id="875" type="4" route="5" depart="83.532033"/>
<vehicle id="38" type="4" route="15" depart="84.164544"/>
<vehicle id="486" type="7" route="56" depart="84.669505"/>
<vehicle id="860" type="6" route="70" depart="84.822193"/>
<vehicle id="150" type="8" route="74" depart="85.071646"/>
<vehicle id="829" type="8" route="58" depart="85.182187"/>
<vehicle id="931" type="4" route="41" depart="85.312336"/>
<vehicle id="302" type="1" route="65" depart="85.356128"/>
<vehicle id="112" type="9" route="30" depart="85.874516"/>
<vehicle id="730" type="3" route="72" depart="85.903015"/>
<vehicle id="13" type="9" route="25" depart="86.453976"/>
<vehicle id="712" type="8" route="59" depart="86.602486"/>
<vehicle id="274" type="4" route="3" depart="86.707952"/>
<vehicle id="173" type="9" route="59" depart="87.247033"/>
<vehicle id="736" type="6" route="39" depart="89.103755"/>
<vehicle id="144" type="9" route="53" depart="89.401698"/>
<vehicle id="330" type="9" route="56" depart="89.680186"/>
<vehicle id="912" type="9" route="7" depart="89.975741"/>
<vehicle id="836" type="6" route="16" depart="90.898179"/>
<vehicle id="409" type="2" route="44" depart="90.909183"/>
<vehicle id="741" type="7" route="79" depart="92.642224"/>
<vehicle id="194" type="2" route="60" depart="93.366690"/>
<vehicle id="957" type="6" route="11" depart="93.700423"/>
<vehicle id="857" type="1" route="27" depart="93.917198"/>
<vehicle id="856" type="5" route="73" depart="94.699106"/>
<vehicle id="608" type="3" route="70" depart="95.219665"/>
<vehicle id="714" type="6" route="36" depart="95.608341"/>
<vehicle id="887" type="6" route="42" depart="96.312690"/>
<vehicle id="519" type="6" route="3" depart="96.900484"/>
<vehicle id="567" type="9" route="55" depart="97.145320"/>
<vehicle id="692" type="6" route="65" depart="97.168340"/>
<vehicle id="44" type="8" route="54" depart="98.807240"/>
<vehicle id="278" type="8" route="52" depart="99.077774"/>
<vehicle id="999" type="3" route="41" depart="99.398891"/>
<vehicle id="922" type="2" route="61" depart="99.411963"/>
<vehicle id="920" type="1" route="75" depart="99.520442"/>
<vehicle id="197" type="3" route="30" depart="99.634393"/>
<vehicle id="814" type="5" route="58" depart="99.685454"/>
<vehicle id="895" type="5" route="3" depart="100.068239"/>
<vehicle id="819" type="7" route="63" depart="100.202452"/>
<vehicle id="210" type="6" route="69" depart="100.608311"/>
<vehicle id="542" type="9" route="13" depart="100.842236"/>
<vehicle id="516" type="8" route="3" depart="101.594495"/>
<vehicle id="596" type="7" route="35" depart="101.969411"/>
<vehicle id="70" type="1" route="77" depart="102.174343"/>
<vehicle id="676" type="9" route="73" depart="102.371695"/>
<vehicle id="502" type="8" route="55" depart="103.236865"/>
<vehicle id="727" type="8" route="28" depart="103.677318"/>
<vehicle id="761" type="6" route="24" depart="103.773583"/>
<vehicle id="528" type="6" route="68" depart="104.442977"/>
<vehicle id="90" type="3" route="50" depart="105.080253"/>
<vehicle id="881" type="6" route="20" depart="105.268580"/>
<vehicle id="886" type="9" route="62" depart="105.366029"/>
<vehicle id="948" type="3" route="67" depart="105.503511"/>
<vehicle id="785" type="5" route="45" depart="105.603547"/>
<vehicle id="659" type="5" route="47" depart="105.650477"/>
<vehicle id="490" type="8" route="65" depart="106.091024"/>
<vehicle id="627" type="3" route="71" depart="106.892102"/>
<vehicle id="848" type="1" route="62" depart="107.361714"/>
<vehicle id="353" type="7" route="10" depart="107.704077"/>
<vehicle id="364" type="3" route="32" depart="107.742583"/>
<vehicle id="297" type="9" route="1" depart="108.215992"/>
<vehicle id="470" type="2" route="53" depart="108.562956"/>
<vehicle id="772" type="1" route="21" depart="108.728156"/>
<vehicle id="783" type="7" route="49" depart="108.860395"/>
<vehicle id="43" type="2" route="27" depart="108.977610"/>
<vehicle id="811" type="6" route="1" depart="108.994165"/>
<vehicle id="392" type="5" route="51" depart="109.544396"/>
<vehicle id="355" type="6" route="18" depart="109.735128"/>
<vehicle id="334" type="8" route="65" depart="109.867475"/>
<vehicle id="320" type="2" route="58" depart="110.357839"/>
<vehicle id="710" type="3" route="13" depart="110.572841"/>
<vehicle id="183" type="6" route="31" depart="110.872392"/>
<vehicle id="187" type="9" route="32" depart="110.916123"/>
<vehicle id="795" type="8" route="24" depart="111.920698"/>
<vehicle id="151" type="1" route="58" depart="112.126669"/>
<vehicle id="681" type="4" route="44" depart="112.742878"/>
<vehicle id="512" type="8" route="38" depart="112.748278"/>
<vehicle id="637" type="7" route="30" depart="112.890577"/>
<vehicle id="541" type="1" route="8" depart="112.938732"/>
<vehicle id="521" type="8" route="4" depart="113.248905"/>
<vehicle id="37" type="4" route="64" depart="114.127353"/>
<vehicle id="980" type="4" route="26" depart="114.688188"/>
<vehicle id="664" type="8" route="10" depart="114.692091"/>
<vehicle id="479" type="2" route="31" depart="114.953681"/>
<vehicle id="563" type="5" route="51" depart="115.267183"/>
<vehicle id="916" type="2" route="45" depart="115.556181"/>
<vehicle id="834" type="8" route="73" depart="115.617317"/>
<vehicle id="373" type="8" route="57" depart="116.959571"/>
<vehicle id="94" type="1" route="61" depart="117.364729"/>
<vehicle id="99" type="2" route="73" depart="117.759731"/>
<vehicle id="117" type="4" route="9" depart="117.770928"/>
<vehicle id="139" type="9" route="59" depart="118.328347"/>
<vehicle id="691" type="9" route="6" depart="118.558431"/>
<vehicle id="207" type="1" route="29" depart="118.891891"/>
<vehicle id="253" type="4" route="78" depart="119.932037"/>
<vehicle id="789" type="8" route="52" depart="120.054044"/>
<vehicle id="316" type="6" route="29" depart="120.066245"/>
<vehicle id="501" type="3" route="33" depart="121.441317"/>
<vehicle id="534" type="4" route="63" depart="122.047455"/>
<vehicle id="818" type="4" route="57" depart="122.144788"/>
<vehicle id="378" type="3" route="54" depart="123.170759"/>
<vehicle id="940" type="5" route="46" depart="123.858989"/>
<vehicle id="324" type="9" route="31" depart="124.262240"/>
<vehicle id="880" type="2" route="4" depart="125.880287"/>
<vehicle id="765" type="1" route="20" depart="126.078565"/>
<vehicle id="393" type="3" route="23" depart="126.368825"/>
<vehicle id="952" type="8" route="29" depart="126.714459"/>
<vehicle id="997" type="7" route="10" depart="127.339619"/>
<vehicle id="360" type="9" route="15" depart="127.631637"/>
<vehicle id="522" type="9" route="1" depart="128.393692"/>
<vehicle id="884" type="5" route="59" depart="128.504993"/>
<vehicle id="662" type="3" route="63" depart="128.788026"/>
<vehicle id="626" type="5" route="50" depart="128.923687"/>
<vehicle id="400" type="3" route="59" depart="130.098587"/>
<vehicle id="4" type="2" route="79" depart="130.614173"/>
<vehicle id="497" type="8" route="3" depart="131.487919"/>
<vehicle id="211" type="7" route="65" depart="132.634762"/>
<vehicle id="441" type="3" route="58" depart="132.710402"/>
<vehicle id="204" type="4" route="34" depart="133.482644"/>
<vehicle id="401" type="8" route="42" depart="133.773223"/>
<vehicle id="663" type="1" route="52" depart="133.907142"/>
<vehicle id="166" type="9" route="77" depart="134.332163"/>
<vehicle id="27" type="5" route="26" depart="134.596340"/>
<vehicle id="611" type="1" route="13" depart="134.786067"/>
<vehicle id="136" type="6" route="5" depart="134.828506"/>
<vehicle id="56" type="5" route="45" depart="134.892060"/>
<vehicle id="777" type="6" route="44" depart="135.347740"/>
<vehicle id="821" type="9" route="51" depart="135.548184"/>
<vehicle id="234" type="6" route="51" depart="135.723716"/>
<vehicle id="206" type="9" route="53" depart="136.236851"/>
<vehicle id="328" type="2" route="10" depart="136.368239"/>
<vehicle id="564" type="1" route="48" depart="136.902537"/>
<vehicle id="603" type="3" route="36" depart="137.188739"/>
<vehicle id="158" type="8" route="2" depart="137.310952"/>
<vehicle id="235" type="7" route="59" depart="137.394182"/>
<vehicle id="306" type="1" route="21" depart="137.441633"/>
<vehicle id="527" type="2" route="47" depart="137.560223"/>
<vehicle id="402" type="6" route="17" depart="138.257768"/>
<vehicle id="463" type="3" route="70" depart="138.507771"/>
<vehicle id="536" type="9" route="62" depart="139.548338"/>
<vehicle id="906" type="1" route="9" depart="139.719803"/>
<vehicle id="555" type="4" route="6" depart="139.760280"/>
<vehicle id="375" type="9" route="67" depart="139.985462"/>
<vehicle id="121" type="4" route="25" depart="140.107197"/>
<vehicle id="475" type="6" route="26" depart="140.615847"/>
<vehicle id="104" type="3" route="43" depart="140.705821"/>
<vehicle id="808" type="5" route="53" depart="140.828119"/>
<vehicle id="88" type="2" route="45" depart="141.678474"/>
<vehicle id="820" type="7" route="24" depart="141.814343"/>
<vehicle id="369" type="2" route="4" depart="142.036562"/>
<vehicle id="913" type="5" route="27" depart="142.056433"/>
<vehicle id="31" type="2" route="69" depart="142.523991"/>
<vehicle id="179" type="6" route="73" depart="143.160092"/>
<vehicle id="155" type="1" route="77" depart="143.368010"/>
<vehicle id="854" type="9" route="40" depart="143.719077"/>
<vehicle id="80" type="2" route="6" depart="143.725289"/>
<vehicle id="419" type="4" route="62" depart="144.305625"/>
<vehicle id="547" type="1" route="68" depart="144.338117"/>
<vehicle id="966" type="9" route="28" depart="144.834302"/>
<vehicle id="786" type="7" route="32" depart="145.059165"/>
<vehicle id="825" type="4" route="49" depart="145.358587"/>
<vehicle id="342" type="8" route="56" depart="145.969723"/>
<vehicle id="48" type="8" route="32" depart="146.073054"/>
<vehicle id="335" type="8" route="75" depart="146.345322"/>
<vehicle id="525" type="7" route="8" depart="146.623162"/>
<vehicle id="956" type="5" route="62" depart="146.742278"/>
<vehicle id="841" type="9" route="29" depart="146.889853"/>
<vehicle id="431" type="5" route="58" depart="147.003438"/>
<vehicle id="591" type="6" route="37" depart="147.739252"/>
<vehicle id="599" type="6" route="49" depart="148.060679"/>
<vehicle id="605" type="9" route="73" depart="148.656507"/>
<vehicle id="695" type="8" route="77" depart="148.785810"/>
<vehicle id="480" type="4" route="55" depart="149.019964"/>
<vehicle id="610" type="3" route="72" depart="149.240398"/>
<vehicle id="609" type="8" route="63" depart="149.297949"/>
<vehicle id="809" type="7" route="9" depart="150.082729"/>
<vehicle id="754" type="8" route="31" depart="150.225943"/>
<vehicle id="482" type="6" route="20" depart="150.717467"/>
<vehicle id="954" type="6" route="36" depart="150.786083"/>
<vehicle id="573" type="2" route="28" depart="150.876388"/>
<vehicle id="602" type="1" route="23" depart="151.430709"/>
<vehicle id="782" type="6" route="76" depart="151.530704"/>
<vehicle id="718" type="6" route="58" depart="152.131814"/>
<vehicle id="350" type="5" route="76" depart="152.180017"/>
<vehicle id="296" type="4" route="44" depart="152.298478"/>
<vehicle id="507" type="5" route="57" depart="152.521294"/>
<vehicle id="388" type="9" route="74" depart="153.469072"/>
<vehicle id="872" type="7" route="34" depart="153.660089"/>