<edges><edge id="0" from="6" to="7" priority="64" numLanes="1" speed="2.501076"/>
<edge id="1" from="7" to="6" priority="64" numLanes="1" speed="2.501076"/>
<edge id="2" from="7" to="8" priority="28" numLanes="1" speed="22.321074"/>
<edge id="3" from="8" to="7" priority="28" numLanes="1" speed="22.321074"/>
<edge id="4" from="8" to="9" priority="74" numLanes="1" speed="67.669949"/>
<edge id="5" from="9" to="8" priority="74" numLanes="1" speed="67.669949"/>
<edge id="6" from="9" to="10" priority="90" numLanes="1" speed="8.693883"/>
<edge id="7" from="10" to="9" priority="90" numLanes="1" speed="8.693883"/>
<edge id="8" from="10" to="11" priority="43" numLanes="1" speed="2.979722"/>
<edge id="9" from="11" to="10" priority="43" numLanes="1" speed="2.979722"/>
<edge id="10" from="12" to="13" priority="22" numLanes="1" speed="50.535529"/>
<edge id="11" from="13" to="12" priority="22" numLanes="1" speed="50.535529"/>
<edge id="12" from="13" to="14" priority="3" numLanes="1" speed="19.883765"/>
<edge id="13" from="14" to="13" priority="3" numLanes="1" speed="19.883765"/>
<edge id="14" from="14" to="15" priority="65" numLanes="1" speed="54.494148"/>
<edge id="15" from="15" to="14" priority="65" numLanes="1" speed="54.494148"/>
<edge id="16" from="15" to="16" priority="23" numLanes="1" speed="58.926568"/>
<edge id="17" from="16" to="15" priority="23" numLanes="1" speed="58.926568"/>
<edge id="18" from="16" to="17" priority="81" numLanes="1" speed="0.649876"/>
<edge id="19" from="17" to="16" priority="81" numLanes="1" speed="0.649876"/>
<edge id="20" from="18" to="19" priority="81" numLanes="1" speed="69.813939"/>
<edge id="21" from="19" to="18" priority="81" numLanes="1" speed="69.813939"/>
<edge id="22" from="19" to="20" priority="35" numLanes="1" speed="15.547950"/>
<edge id="23" from="20" to="19" priority="35" numLanes="1" speed="15.547950"/>
<edge id="24" from="20" to="21" priority="96" numLanes="1" speed="33.659455"/>
<edge id="25" from="21" to="20" priority="96" numLanes="1" speed="33.659455"/>
<edge id="26" from="21" to="22" priority="10" numLanes="1" speed="9.671638"/>
<edge id="27" from="22" to="21" priority="10" numLanes="1" speed="9.671638"/>
<edge id="28" from="22" to="23" priority="85" numLanes="1" speed="60.372603"/>
<edge id="29" from="23" to="22" priority="85" numLanes="1" speed="60.372603"/>
<edge id="30" from="24" to="25" priority="81" numLanes="1" speed="72.973179"/>
<edge id="31" from="25" to="24" priority="81" numLanes="1" speed="72.973179"/>
<edge id="32" from="25" to="26" priority="54" numLanes="1" speed="97.311576"/>
<edge id="33" from="26" to="25" priority="54" numLanes="1" speed="97.311576"/>
<edge id="34" from="26" to="27" priority="38" numLanes="1" speed="55.204063"/>
<edge id="35" from="27" to="26" priority="38" numLanes="1" speed="55.204063"/>
<edge id="36" from="27" to="28" priority="83" numLanes="1" speed="61.851975"/>
<edge id="37" from="28" to="27" priority="83" numLanes="1" speed="61.851975"/>
<edge id="38" from="28" to="29" priority="87" numLanes="1" speed="57.735215"/>
<edge id="39" from="29" to="28" priority="87" numLanes="1" speed="57.735215"/>
<edge id="40" from="1" to="7" priority="71" numLanes="1" speed="4.582438"/>
<edge id="41" from="7" to="1" priority="71" numLanes="1" speed="4.582438"/>
<edge id="42" from="2" to="8" priority="23" numLanes="1" speed="28.938796"/>
<edge id="43" from="8" to="2" priority="23" numLanes="1" speed="28.938796"/>
<edge id="44" from="3" to="9" priority="8" numLanes="1" speed="23.279089"/>
<edge id="45" from="9" to="3" priority="8" numLanes="1" speed="23.279089"/>
<edge id="46" from="4" to="10" priority="11" numLanes="1" speed="27.797360"/>
<edge id="47" from="10" to="4" priority="11" numLanes="1" speed="27.797360"/>
<edge id="48" from="7" to="13" priority="64" numLanes="1" speed="36.483218"/>
<edge id="49" from="13" to="7" priority="64" numLanes="1" speed="36.483218"/>
<edge id="50" from="8" to="14" priority="38" numLanes="1" speed="20.950703"/>
<edge id="51" from="14" to="8" priority="38" numLanes="1" speed="20.950703"/>
<edge id="52" from="9" to="15" priority="27" numLanes="1" speed="93.665459"/>
<edge id="53" from="15" to="9" priority="27" numLanes="1" speed="93.665459"/>
<edge id="54" from="10" to="16" priority="65" numLanes="1" speed="60.913101"/>
<edge id="55" from="16" to="10" priority="65" numLanes="1" speed="60.913101"/>
<edge id="56" from="13" to="19" priority="18" numLanes="1" speed="72.912680"/>
<edge id="57" from="19" to="13" priority="18" numLanes="1" speed="72.912680"/>
<edge id="58" from="14" to="20" priority="17" numLanes="1" speed="37.945544"/>
<edge id="59" from="20" to="14" priority="17" numLanes="1" speed="37.945544"/>
<edge id="60" from="15" to="21" priority="99" numLanes="1" speed="63.999976"/>
<edge id="61" from="21" to="15" priority="99" numLanes="1" speed="63.999976"/>
<edge id="62" from="16" to="22" priority="56" numLanes="1" speed="68.461425"/>
<edge id="63" from="22" to="16" priority="56" numLanes="1" speed="68.461425"/>
<edge id="64" from="19" to="25" priority="85" numLanes="1" speed="77.599991"/>
<edge id="65" from="25" to="19" priority="85" numLanes="1" speed="77.599991"/>
<edge id="66" from="20" to="26" priority="23" numLanes="1" speed="3.210024"/>
<edge id="67" from="26" to="20" priority="23" numLanes="1" speed="3.210024"/>
<edge id="68" from="21" to="27" priority="32" numLanes="1" speed="26.774088"/>
<edge id="69" from="27" to="21" priority="32" numLanes="1" speed="26.774088"/>
<edge id="70" from="22" to="28" priority="22" numLanes="1" speed="94.290971"/>
<edge id="71" from="28" to="22" priority="22" numLanes="1" speed="94.290971"/>
<edge id="72" from="25" to="31" priority="88" numLanes="1" speed="31.467788"/>
<edge id="73" from="31" to="25" priority="88" numLanes="1" speed="31.467788"/>
<edge id="74" from="26" to="32" priority="66" numLanes="1" speed="39.563190"/>
<edge id="75" from="32" to="26" priority="66" numLanes="1" speed="39.563190"/>
<edge id="76" from="27" to="33" priority="92" numLanes="1" speed="45.885185"/>
<edge id="77" from="33" to="27" priority="92" numLanes="1" speed="45.885185"/>
<edge id="78" from="28" to="34" priority="27" numLanes="1" speed="24.662751"/>
<edge id="79" from="34" to="28" priority="27" numLanes="1" speed="24.662751"/>
</edges>