<routes>
<vType id="0" accel="8.923738" decel="2.987911" sigma="0.149929" length="7.889269" width="9.097183" minGap="8.248868" maxSpeed="8.221274" guiShape="bus/flexible"/>
<vType id="1" accel="6.605303" decel="6.807558" sigma="0.721283" length="6.898605" width="9.977222" minGap="3.334836" maxSpeed="4.767091" guiShape="transport"/>
<vType id="2" accel="0.353190" decel="7.080690" sigma="0.572042" length="2.709236" width="7.538949" minGap="3.001269" maxSpeed="5.811716" guiShape="rail/city"/>
<vType id="3" accel="9.065265" decel="6.718685" sigma="0.507315" length="8.608773" width="8.565748" minGap="8.888453" maxSpeed="2.630223" guiShape="passenger"/>
<vType id="4" accel="1.279441" decel="2.586519" sigma="0.808344" length="7.866264" width="2.647615" minGap="7.117411" maxSpeed="4.020692" guiShape="motorcycle"/>
<vType id="5" accel="3.552834" decel="7.442099" sigma="0.307085" length="8.092814" width="3.981854" minGap="3.345033" maxSpeed="3.646460" guiShape="rail/slow"/>
<vType id="6" accel="4.705366" decel="8.663934" sigma="0.583575" length="9.498709" width="1.640942" minGap="9.004835" maxSpeed="5.504296" guiShape="rail/fast"/>
<vType id="7" accel="3.816692" decel="2.983558" sigma="0.054062" length="8.688158" width="2.236287" minGap="2.802669" maxSpeed="4.682727" guiShape="bus/city"/>
<vType id="8" accel="9.066209" decel="4.575714" sigma="0.316383" length="7.441016" width="8.010471" minGap="5.388228" maxSpeed="6.679295" guiShape="passenger/sedan"/>
<vType id="9" accel="6.344990" decel="0.047135" sigma="0.273528" length="7.850740" width="2.517452" minGap="7.880354" maxSpeed="5.406194" guiShape="rail/light"/>
<route id="0" edges="0 2 4 6 8"/>
<route id="1" edges="1"/>
<route id="2" edges="2 4 6 8"/>
<route id="3" edges="3 1"/>
<route id="4" edges="4 6 8"/>
<route id="5" edges="5 3 41"/>
<route id="6" edges="6 8"/>
<route id="7" edges="7 5 43"/>
<route id="8" edges="8"/>
<route id="9" edges="9 7 45"/>
<route id="10" edges="10 12 14 16 18"/>
<route id="11" edges="11"/>
<route id="12" edges="12 14 16 18"/>
<route id="13" edges="13 11"/>
<route id="14" edges="14 16 18"/>
<route id="15" edges="15 13 49 1"/>
<route id="16" edges="16 18"/>
<route id="17" edges="17 15 51 3 41"/>
<route id="18" edges="18"/>
<route id="19" edges="19 17 53 5 43"/>
<route id="20" edges="20 22 24 26 28"/>
<route id="21" edges="21"/>
<route id="22" edges="22 24 26 28"/>
<route id="23" edges="23 21"/>
<route id="24" edges="24 26 28"/>
<route id="25" edges="25 23 57 11"/>
<route id="26" edges="26 28"/>
<route id="27" edges="27 25 59 13 49 1"/>
<route id="28" edges="28"/>
<route id="29" edges="29 27 61 15 51 3 41"/>
<route id="30" edges="30 32 34 36 38"/>
<route id="31" edges="31"/>
<route id="32" edges="32 34 36 38"/>
<route id="33" edges="33 31"/>
<route id="34" edges="34 36 38"/>
<route id="35" edges="35 33 65 21"/>
<route id="36" edges="36 38"/>
<route id="37" edges="37 35 67 23 57 11"/>
<route id="38" edges="38"/>
<route id="39" edges="39 37 69 25 59 13 49 1"/>
<route id="40" edges="40 1"/>
<route id="41" edges="41"/>
<route id="42" edges="42 3 41"/>
<route id="43" edges="43"/>
<route id="44" edges="44 5 43"/>
<route id="45" edges="45"/>
<route id="46" edges="46 7 45"/>
<route id="47" edges="47"/>
<route id="48" edges="48 11"/>
<route id="49" edges="49 1"/>
<route id="50" edges="50 13 49 1"/>
<route id="51" edges="51 3 41"/>
<route id="52" edges="52 15 51 3 41"/>
<route id="53" edges="53 5 43"/>
<route id="54" edges="54 17 53 5 43"/>
<route id="55" edges="55 7 45"/>
<route id="56" edges="56 21"/>
<route id="57" edges="57 11"/>
<route id="58" edges="58 23 57 11"/>
<route id="59" edges="59 13 49 1"/>
<route id="60" edges="60 25 59 13 49 1"/>
<route id="61" edges="61 15 51 3 41"/>
<route id="62" edges="62 27 61 15 51 3 41"/>
<route id="63" edges="63 17 53 5 43"/>
<route id="64" edges="64 31"/>
<route id="65" edges="65 21"/>
<route id="66" edges="66 33 65 21"/>
<route id="67" edges="67 23 57 11"/>
<route id="68" edges="68 35 67 23 57 11"/>
<route id="69" edges="69 25 59 13 49 1"/>
<route id="70" edges="70 37 69 25 59 13 49 1"/>
<route id="71" edges="71 27 61 15 51 3 41"/>
<route id="72" edges="72"/>
<route id="73" edges="73 31"/>
<route id="74" edges="74"/>
<route id="75" edges="75 33 65 21"/>
<route id="76" edges="76"/>
<route id="77" edges="77 35 67 23 57 11"/>
<route id="78" edges="78"/>
<route id="79" edges="79 37 69 25 59 13 49 1"/>
<vehicle id="65" type="4" route="45" depart="6.109757"/>
<vehicle id="28" type="9" route="27" depart="98.567966"/>
<vehicle id="726" type="8" route="43" depart="119.064971"/>
<vehicle id="174" type="3" route="34" depart="173.947776"/>
<vehicle id="760" type="1" route="39" depart="228.584828"/>
<vehicle id="237" type="6" route="10" depart="258.985888"/>
<vehicle id="347" type="3" route="19" depart="259.847460"/>
<vehicle id="139" type="9" route="43" depart="263.901104"/>
<vehicle id="641" type="4" route="8" depart="292.293087"/>
<vehicle id="130" type="8" route="78" depart="316.933067"/>
<vehicle id="566" type="6" route="51" depart="406.701647"/>
<vehicle id="440" type="6" route="48" depart="411.637715"/>
<vehicle id="691" type="2" route="69" depart="427.069443"/>
<vehicle id="802" type="3" route="45" depart="447.227694"/>
<vehicle id="111" type="3" route="44" depart="466.748556"/>
<vehicle id="924" type="1" route="46" depart="503.435217"/>
<vehicle id="148" type="6" route="35" depart="608.074859"/>
<vehicle id="466" type="2" route="56" depart="661.986452"/>
<vehicle id="994" type="7" route="15" depart="669.719596"/>
<vehicle id="393" type="4" route="15" depart="673.914837"/>
<vehicle id="976" type="3" route="27" depart="709.631647"/>
<vehicle id="17" type="6" route="52" depart="710.703595"/>
<vehicle id="476" type="5" route="74" depart="773.584496"/>
<vehicle id="703" type="3" route="16" depart="853.217023"/>
<vehicle id="455" type="3" route="47" depart="871.445892"/>
<vehicle id="806" type="8" route="60" depart="878.885054"/>
<vehicle id="971" type="4" route="59" depart="968.394336"/>
<vehicle id="334" type="2" route="67" depart="1028.566549"/>
<vehicle id="910" type="4" route="57" depart="1035.343340"/>
<vehicle id="570" type="7" route="49" depart="1048.225745"/>
<vehicle id="618" type="8" route="36" depart="1089.508760"/>
<vehicle id="959" type="5" route="76" depart="1137.546835"/>
<vehicle id="583" type="7" route="25" depart="1138.615770"/>
<vehicle id="848" type="2" route="45" depart="1248.807192"/>
<vehicle id="671" type="8" route="23" depart="1271.744646"/>
<vehicle id="259" type="3" route="14" depart="1298.200793"/>
<vehicle id="744" type="6" route="74" depart="1327.596027"/>
<vehicle id="765" type="9" route="49" depart="1354.363631"/>
<vehicle id="429" type="9" route="13" depart="1358.506803"/>
<vehicle id="225" type="5" route="49" depart="1405.316290"/>
<vehicle id="212" type="2" route="50" depart="1410.871149"/>
<vehicle id="693" type="9" route="54" depart="1476.634141"/>
<vehicle id="846" type="2" route="19" depart="1481.452434"/>
<vehicle id="371" type="3" route="50" depart="1518.692961"/>
<vehicle id="287" type="7" route="43" depart="1521.472562"/>
<vehicle id="776" type="8" route="60" depart="1559.429376"/>
<vehicle id="467" type="6" route="53" depart="1565.352270"/>
<vehicle id="74" type="5" route="56" depart="1648.011955"/>
<vehicle id="36" type="1" route="60" depart="1652.007135"/>
<vehicle id="49" type="2" route="33" depart="1655.003714"/>
<vehicle id="447" type="1" route="46" depart="1775.199531"/>
<vehicle id="747" type="2" route="14" depart="1798.487906"/>
<vehicle id="443" type="5" route="18" depart="1818.713309"/>
<vehicle id="952" type="2" route="8" depart="1902.687146"/>
<vehicle id="145" type="3" route="7" depart="1953.650552"/>
<vehicle id="520" type="4" route="49" depart="1963.680005"/>
<vehicle id="363" type="8" route="76" depart="2017.380398"/>
<vehicle id="740" type="9" route="3" depart="2017.960311"/>
<vehicle id="43" type="2" route="55" depart="2111.270244"/>
<vehicle id="916" type="8" route="41" depart="2133.548535"/>
<vehicle id="194" type="2" route="39" depart="2263.001811"/>
<vehicle id="943" type="9" route="78" depart="2329.574802"/>
<vehicle id="975" type="6" route="72" depart="2358.008499"/>
<vehicle id="917" type="2" route="20" depart="2384.905002"/>
<vehicle id="817" type="2" route="45" depart="2412.212910"/>
<vehicle id="274" type="1" route="10" depart="2431.953384"/>
<vehicle id="551" type="4" route="30" depart="2436.000402"/>
<vehicle id="125" type="2" route="15" depart="2454.352888"/>
<vehicle id="390" type="9" route="44" depart="2479.557001"/>
<vehicle id="651" type="7" route="11" depart="2582.855875"/>
<vehicle id="719" type="7" route="9" depart="2625.102122"/>
<vehicle id="906" type="2" route="37" depart="2750.411721"/>
<vehicle id="181" type="3" route="71" depart="2752.645628"/>
<vehicle id="955" type="6" route="8" depart="2754.621325"/>
<vehicle id="628" type="3" route="53" depart="2804.198493"/>
<vehicle id="666" type="7" route="76" depart="2810.949062"/>
<vehicle id="664" type="8" route="37" depart="2816.445670"/>
<vehicle id="405" type="5" route="71" depart="2878.444916"/>
<vehicle id="252" type="1" route="18" depart="2881.430521"/>
<vehicle id="682" type="8" route="28" depart="3038.452766"/>
<vehicle id="653" type="4" route="79" depart="3047.883994"/>
<vehicle id="216" type="6" route="23" depart="3086.946098"/>
<vehicle id="873" type="2" route="47" depart="3098.807075"/>
<vehicle id="869" type="9" route="70" depart="3153.550713"/>
<vehicle id="453" type="3" route="74" depart="3225.407333"/>
<vehicle id="30" type="7" route="12" depart="3242.976249"/>
<vehicle id="263" type="7" route="6" depart="3245.970873"/>
<vehicle id="804" type="3" route="52" depart="3266.262178"/>
<vehicle id="920" type="2" route="28" depart="3268.055269"/>
<vehicle id="250" type="9" route="1" depart="3279.189033"/>
<vehicle id="379" type="1" route="13" depart="3290.455883"/>
<vehicle id="860" type="8" route="36" depart="3329.320727"/>
<vehicle id="988" type="1" route="67" depart="3410.410146"/>
<vehicle id="224" type="4" route="12" depart="3466.748762"/>
<vehicle id="410" type="9" route="76" depart="3496.293006"/>
<vehicle id="972" type="9" route="27" depart="3504.601772"/>
<vehicle id="701" type="8" route="1" depart="3517.155341"/>
<vehicle id="168" type="3" route="6" depart="3535.286450"/>
<vehicle id="696" type="4" route="22" depart="3537.964383"/>
<vehicle id="33" type="3" route="37" depart="3593.120942"/>
<vehicle id="758" type="9" route="4" depart="3598.842624"/>
<vehicle id="170" type="2" route="52" depart="3601.622062"/>
<vehicle id="31" type="5" route="58" depart="3646.457229"/>
<vehicle id="942" type="4" route="47" depart="3661.997636"/>
<vehicle id="64" type="5" route="52" depart="3695.159573"/>
<vehicle id="328" type="1" route="14" depart="3708.335306"/>
<vehicle id="141" type="8" route="34" depart="3741.365130"/>
<vehicle id="606" type="5" route="54" depart="3813.369079"/>
<vehicle id="498" type="3" route="62" depart="3843.771582"/>
<vehicle id="915" type="7" route="4" depart="3881.425747"/>
<vehicle id="950" type="3" route="61" depart="3889.320049"/>
<vehicle id="222" type="3" route="31" depart="3908.524100"/>
<vehicle id="815" type="7" route="71" depart="3994.795574"/>
<vehicle id="462" type="1" route="55" depart="4006.007723"/>
<vehicle id="678" type="8" route="2" depart="4015.778555"/>
<vehicle id="374" type="8" route="18" depart="4065.424535"/>
<vehicle id="661" type="6" route="56" depart="4073.917306"/>
<vehicle id="522" type="5" route="58" depart="4074.177105"/>
<vehicle id="71" type="6" route="57" depart="4104.840901"/>
<vehicle id="528" type="7" route="10" depart="4109.937798"/>
<vehicle id="934" type="1" route="26" depart="4166.013851"/>
<vehicle id="687" type="6" route="60" depart="4175.797119"/>
<vehicle id="778" type="8" route="39" depart="4178.343077"/>
<vehicle id="768" type="1" route="19" depart="4230.281618"/>
<vehicle id="226" type="8" route="40" depart="4230.590637"/>
<vehicle id="23" type="1" route="57" depart="4238.444464"/>
<vehicle id="741" type="8" route="4" depart="4254.735914"/>
<vehicle id="63" type="8" route="36" depart="4273.446674"/>
<vehicle id="889" type="5" route="55" depart="4305.012624"/>
<vehicle id="313" type="3" route="2" depart="4364.549612"/>
<vehicle id="824" type="5" route="42" depart="4417.539633"/>
<vehicle id="912" type="2" route="18" depart="4512.390521"/>
<vehicle id="382" type="7" route="63" depart="4529.788476"/>
<vehicle id="787" type="9" route="16" depart="4579.623529"/>
<vehicle id="642" type="9" route="32" depart="4592.005094"/>
<vehicle id="399" type="1" route="66" depart="4671.873588"/>
<vehicle id="605" type="4" route="36" depart="4682.664074"/>
<vehicle id="536" type="6" route="10" depart="4736.557145"/>
<vehicle id="833" type="9" route="43" depart="4752.985277"/>
<vehicle id="446" type="3" route="32" depart="4758.805633"/>
<vehicle id="803" type="7" route="76" depart="4777.632064"/>
<vehicle id="233" type="7" route="8" depart="4819.791802"/>
<vehicle id="176" type="4" route="67" depart="4835.009966"/>
<vehicle id="449" type="7" route="11" depart="4855.347494"/>
<vehicle id="932" type="2" route="9" depart="4892.845317"/>
<vehicle id="788" type="7" route="5" depart="4914.053977"/>
<vehicle id="878" type="7" route="60" depart="4929.373437"/>
<vehicle id="504" type="8" route="39" depart="4950.458004"/>
<vehicle id="488" type="5" route="17" depart="4988.754965"/>
<vehicle id="858" type="7" route="72" depart="5019.238564"/>
<vehicle id="662" type="5" route="55" depart="5115.149277"/>
<vehicle id="590" type="5" route="62" depart="5158.621726"/>
<vehicle id="941" type="6" route="7" depart="5161.232220"/>
<vehicle id="784" type="5" route="71" depart="5217.885791"/>
<vehicle id="101" type="5" route="2" depart="5231.761619"/>
<vehicle id="457" type="9" route="35" depart="5249.465107"/>
<vehicle id="304" type="4" route="31" depart="5250.374472"/>
<vehicle id="543" type="8" route="4" depart="5337.222054"/>
<vehicle id="743" type="7" route="70" depart="5362.330665"/>
<vehicle id="797" type="9" route="47" depart="5362.909264"/>
<vehicle id="636" type="1" route="12" depart="5371.791544"/>
<vehicle id="442" type="1" route="43" depart="5384.880690"/>
<vehicle id="679" type="2" route="47" depart="5440.882085"/>
<vehicle id="954" type="4" route="54" depart="5498.519442"/>
<vehicle id="486" type="3" route="19" depart="5498.969550"/>
<vehicle id="19" type="5" route="38" depart="5512.575532"/>
<vehicle id="683" type="2" route="74" depart="5549.410747"/>
<vehicle id="902" type="9" route="9" depart="5563.976929"/>
<vehicle id="331" type="1" route="21" depart="5589.877032"/>
<vehicle id="57" type="1" route="51" depart="5649.385439"/>
<vehicle id="260" type="3" route="1" depart="5668.011391"/>
<vehicle id="249" type="7" route="56" depart="5786.568329"/>
<vehicle id="712" type="7" route="26" depart="5830.777139"/>
<vehicle id="321" type="8" route="6" depart="5831.981602"/>
<vehicle id="892" type="8" route="11" depart="5879.118665"/>
<vehicle id="205" type="5" route="11" depart="5961.809607"/>
<vehicle id="190" type="8" route="49" depart="5970.367873"/>
<vehicle id="375" type="6" route="26" depart="6024.972831"/>
<vehicle id="138" type="5" route="75" depart="6026.213132"/>
<vehicle id="37" type="8" route="53" depart="6138.441949"/>
<vehicle id="789" type="8" route="37" depart="6163.247402"/>
<vehicle id="840" type="2" route="63" depart="6182.536516"/>
<vehicle id="117" type="7" route="15" depart="6256.624747"/>
<vehicle id="315" type="6" route="52" depart="6283.398086"/>
<vehicle id="777" type="7" route="74" depart="6331.953896"/>
<vehicle id="773" type="9" route="38" depart="6347.657425"/>
<vehicle id="732" type="7" route="52" depart="6358.258962"/>
<vehicle id="116" type="9" route="24" depart="6387.332346"/>
<vehicle id="716" type="9" route="49" depart="6423.918122"/>
<vehicle id="607" type="1" route="34" depart="6443.387757"/>
<vehicle id="191" type="5" route="36" depart="6449.226621"/>
<vehicle id="301" type="8" route="23" depart="6476.012234"/>
<vehicle id="561" type="6" route="39" depart="6476.660340"/>
<vehicle id="929" type="4" route="76" depart="6510.547355"/>
<vehicle id="219" type="8" route="65" depart="6547.829467"/>
<vehicle id="354" type="4" route="68" depart="6566.658444"/>
<vehicle id="657" type="5" route="29" depart="6688.477213"/>
<vehicle id="356" type="3" route="50" depart="6760.419932"/>
<vehicle id="937" type="3" route="68" depart="6796.259484"/>
<vehicle id="411" type="7" route="43" depart="6820.574872"/>
<vehicle id="733" type="1" route="31" depart="6876.113793"/>
<vehicle id="137" type="1" route="71" depart="6930.445966"/>
<vehicle id="598" type="9" route="26" depart="6931.643026"/>
<vehicle id="736" type="7" route="12" depart="6951.337881"/>
<vehicle id="24" type="2" route="9" depart="7151.279821"/>
<vehicle id="314" type="8" route="77" depart="7162.491983"/>
<vehicle id="282" type="9" route="40" depart="7187.995407"/>
<vehicle id="458" type="1" route="65" depart="7188.667690"/>
<vehicle id="992" type="4" route="43" depart="7202.771477"/>
<vehicle id="93" type="9" route="50" depart="7232.006964"/>
<vehicle id="256" type="6" route="35" depart="7261.460741"/>
<vehicle id="763" type="7" route="55" depart="7421.767869"/>
<vehicle id="195" type="4" route="4" depart="7443.866690"/>
<vehicle id="283" type="7" route="69" depart="7444.030764"/>
<vehicle id="67" type="3" route="41" depart="7446.644959"/>
<vehicle id="27" type="1" route="40" depart="7476.983434"/>
<vehicle id="577" type="3" route="43" depart="7497.448927"/>
<vehicle id="404" type="1" route="74" depart="7514.571366"/>
<vehicle id="463" type="5" route="2" depart="7524.343480"/>
<vehicle id="206" type="1" route="51" depart="7614.615749"/>
<vehicle id="127" type="1" route="18" depart="7680.737167"/>
<vehicle id="421" type="6" route="45" depart="7701.412898"/>
<vehicle id="930" type="4" route="30" depart="7713.864017"/>
<vehicle id="247" type="7" route="13" depart="7720.493095"/>
<vehicle id="585" type="5" route="76" depart="7781.035654"/>
<vehicle id="128" type="3" route="29" depart="7864.030288"/>
<vehicle id="770" type="7" route="43" depart="7893.940812"/>
<vehicle id="702" type="1" route="36" depart="7898.987726"/>
<vehicle id="445" type="6" route="40" depart="7995.082613"/>
<vehicle id="60" type="9" route="4" depart="8017.434834"/>
<vehicle id="186" type="7" route="29" depart="8039.039314"/>
<vehicle id="821" type="2" route="59" depart="8115.740147"/>
<vehicle id="439" type="8" route="69" depart="8161.836169"/>
<vehicle id="302" type="2" route="46" depart="8228.402982"/>
<vehicle id="230" type="1" route="42" depart="8261.505230"/>
<vehicle id="500" type="3" route="45" depart="8312.808554"/>
<vehicle id="359" type="7" route="58" depart="8381.177926"/>
<vehicle id="61" type="6" route="32" depart="8460.000000"/>
<vehicle id="303" type="1" route="22" depart="8488.986224"/>
<vehicle id="479" type="4" route="50" depart="8503.371565"/>
<vehicle id="584" type="4" route="40" depart="8555.120866"/>
<vehicle id="539" type="1" route="70" depart="8563.620745"/>
<vehicle id="394" type="8" route="62" depart="8596.316096"/>
<vehicle id="59" type="1" route="39" depart="8672.105401"/>
<vehicle id="541" type="1" route="48" depart="8809.674172"/>
<vehicle id="885" type="5" route="55" depart="8811.009415"/>
<vehicle id="54" type="1" route="53" depart="8948.771815"/>
<vehicle id="526" type="2" route="36" depart="9002.962587"/>
<vehicle id="103" type="2" route="23" depart="9020.196268"/>
<vehicle id="537" type="2" route="50" depart="9111.995104"/>
<vehicle id="372" type="9" route="42" depart="9119.258652"/>
<vehicle id="422" type="7" route="74" depart="9147.208579"/>
<vehicle id="15" type="1" route="70" depart="9208.410261"/>
<vehicle id="213" type="6" route="5" depart="9297.347257"/>
<vehicle id="297" type="3" route="49" depart="9349.227687"/>
<vehicle id="342" type="4" route="29" depart="9353.053582"/>
<vehicle id="847" type="3" route="10" depart="9374.659101"/>
<vehicle id="680" type="5" route="64" depart="9405.093165"/>
<vehicle id="882" type="1" route="1" depart="9456.372848"/>
<vehicle id="350" type="4" route="30" depart="9467.289916"/>
<vehicle id="199" type="8" route="66" depart="9479.378498"/>
<vehicle id="391" type="2" route="24" depart="9480.573680"/>
<vehicle id="408" type="7" route="66" depart="9569.362842"/>
<vehicle id="722" type="9" route="53" depart="9591.713320"/>
<vehicle id="978" type="6" route="72" depart="9598.279869"/>
<vehicle id="358" type="2" route="9" depart="9691.024784"/>
<vehicle id="811" type="1" route="34" depart="9712.417700"/>
<vehicle id="21" type="6" route="53" depart="9719.177383"/>
<vehicle id="323" type="3" route="51" depart="9764.931649"/>
<vehicle id="470" type="1" route="31" depart="9767.173647"/>
<vehicle id="600" type="2" route="12" depart="9850.927890"/>
<vehicle id="553" type="2" route="55" depart="9879.067539"/>
<vehicle id="830" type="9" route="9" depart="9933.938504"/>
<vehicle id="771" type="7" route="53" depart="9951.357021"/>
<vehicle id="265" type="4" route="77" depart="9954.282553"/>
<vehicle id="862" type="2" route="74" depart="10005.378090"/>
<vehicle id="579" type="4" route="77" depart="10096.561032"/>
<vehicle id="677" type="3" route="11" depart="10114.989533"/>
<vehicle id="925" type="2" route="16" depart="10146.844493"/>
<vehicle id="603" type="2" route="56" depart="10197.637056"/>
<vehicle id="257" type="6" route="64" depart="10296.234422"/>
<vehicle id="675" type="8" route="50" depart="10325.363557"/>
<vehicle id="829" type="1" route="71" depart="10381.416757"/>
<vehicle id="34" type="2" route="4" depart="10460.418381"/>
<vehicle id="187" type="7" route="58" depart="10475.969768"/>
<vehicle id="322" type="3" route="26" depart="10488.828701"/>
<vehicle id="73" type="8" route="77" depart="10511.408297"/>
<vehicle id="552" type="4" route="44" depart="10541.977681"/>
<vehicle id="832" type="5" route="50" depart="10554.099910"/>
<vehicle id="268" type="1" route="6" depart="10593.065681"/>
<vehicle id="104" type="8" route="55" depart="10625.060375"/>
<vehicle id="26" type="2" route="56" depart="10632.643236"/>
<vehicle id="7" type="2" route="66" depart="10735.281126"/>
<vehicle id="545" type="7" route="67" depart="10743.895679"/>
<vehicle id="91" type="7" route="60" depart="10760.872858"/>
<vehicle id="550" type="9" route="8" depart="10774.601337"/>
<vehicle id="20" type="7" route="50" depart="10840.192371"/>
<vehicle id="152" type="1" route="63" depart="10848.625554"/>
<vehicle id="688" type="2" route="32" depart="10849.216678"/>
<vehicle id="850" type="5" route="13" depart="10856.151703"/>
<vehicle id="425" type="5" route="79" depart="10866.299542"/>
<vehicle id="409" type="1" route="6" depart="10940.563759"/>
<vehicle id="839" type="8" route="36" depart="10946.964178"/>
<vehicle id="639" type="6" route="73" depart="10963.804789"/>
<vehicle id="161" type="5" route="75" depart="10968.881485"/>
<vehicle id="441" type="7" route="31" depart="10972.202144"/>
<vehicle id="172" type="5" route="49" depart="11004.317619"/>
<vehicle id="738" type="1" route="43" depart="11078.311667"/>
<vehicle id="332" type="6" route="70" depart="11137.343528"/>
<vehicle id="340" type="5" route="51" depart="11147.807812"/>
<vehicle id="935" type="3" route="48" depart="11232.248789"/>
<vehicle id="370" type="5" route="54" depart="11235.937161"/>
<vehicle id="597" type="3" route="46" depart="11237.144344"/>
<vehicle id="609" type="7" route="49" depart="11247.863441"/>
<vehicle id="667" type="6" route="64" depart="11249.989972"/>
<vehicle id="418" type="4" route="28" depart="11345.579861"/>
<vehicle id="238" type="6" route="55" depart="11372.461727"/>
<vehicle id="558" type="3" route="49" depart="11393.588106"/>
<vehicle id="638" type="2" route="54" depart="11397.517821"/>
<vehicle id="171" type="6" route="72" depart="11440.293740"/>
<vehicle id="124" type="4" route="62" depart="11442.924193"/>
<vehicle id="602" type="2" route="28" depart="11465.456827"/>
<vehicle id="891" type="2" route="5" depart="11508.520012"/>
<vehicle id="852" type="2" route="37" depart="11527.845514"/>
<vehicle id="969" type="4" route="78" depart="11537.380205"/>
<vehicle id="397" type="5" route="49" depart="11613.601437"/>
<vehicle id="121" type="2" route="13" depart="11614.681076"/>
<vehicle id="568" type="3" route="41" depart="11661.258218"/>
<vehicle id="509" type="8" route="39" depart="11696.242565"/>
<vehicle id="335" type="6" route="68" depart="11707.247400"/>
<vehicle id="781" type="3" route="62" depart="11740.760089"/>
<vehicle id="487" type="9" route="72" depart="11854.250581"/>
<vehicle id="362" type="5" route="63" depart="11888.951293"/>
<vehicle id="169" type="7" route="39" depart="11910.633541"/>
<vehicle id="810" type="1" route="71" depart="11984.620982"/>
<vehicle id="477" type="3" route="42" depart="12008.506847"/>
<vehicle id="565" type="9" route="33" depart="12016.521250"/>
<vehicle id="775" type="3" route="35" depart="12034.606652"/>
<vehicle id="311" type="6" route="36" depart="12047.635387"/>
<vehicle id="574" type="9" route="43" depart="12063.947563"/>
<vehicle id="755" type="7" route="47" depart="12078.134196"/>
<vehicle id="571" type="2" route="27" depart="12165.726790"/>
<vehicle id="901" type="4" route="39" depart="12251.271286"/>
<vehicle id="625" type="9" route="31" depart="12265.709694"/>
<vehicle id="72" type="7" route="18" depart="12288.856125"/>
<vehicle id="569" type="1" route="55" depart="12289.017068"/>
<vehicle id="360" type="2" route="39" depart="12308.862739"/>
<vehicle id="162" type="7" route="72" depart="12378.659395"/>
<vehicle id="5" type="3" route="55" depart="12396.591866"/>
<vehicle id="244" type="3" route="25" depart="12396.826952"/>
<vehicle id="686" type="2" route="59" depart="12422.725901"/>
<vehicle id="823" type="3" route="6" depart="12428.156944"/>
<vehicle id="94" type="6" route="23" depart="12430.568912"/>
<vehicle id="478" type="4" route="13" depart="12484.076505"/>
<vehicle id="388" type="2" route="15" depart="12515.928445"/>
<vehicle id="767" type="6" route="62" depart="12522.728406"/>
<vehicle id="454" type="7" route="34" depart="12539.082846"/>
<vehicle id="973" type="4" route="29" depart="12645.693377"/>
<vehicle id="868" type="4" route="23" depart="12648.781203"/>
<vehicle id="97" type="3" route="10" depart="12680.560889"/>
<vehicle id="842" type="7" route="4" depart="12712.352233"/>
<vehicle id="261" type="9" route="62" depart="12712.595881"/>
<vehicle id="559" type="5" route="79" depart="12738.720397"/>
<vehicle id="414" type="1" route="51" depart="12886.681171"/>
<vehicle id="385" type="2" route="55" depart="12894.029901"/>
<vehicle id="46" type="2" route="31" depart="12909.560934"/>
<vehicle id="193" type="7" route="39" depart="12916.639398"/>
<vehicle id="728" type="6" route="74" depart="12921.059757"/>
<vehicle id="10" type="4" route="72" depart="12933.031909"/>
<vehicle id="501" type="3" route="55" depart="12933.408043"/>
<vehicle id="866" type="9" route="72" depart="12998.335289"/>
<vehicle id="769" type="5" route="8" depart="13028.446965"/>
<vehicle id="324" type="5" route="69" depart="13073.934249"/>
<vehicle id="983" type="4" route="49" depart="13080.034993"/>
<vehicle id="68" type="7" route="76" depart="13080.329193"/>
<vehicle id="173" type="6" route="45" depart="13121.763684"/>
<vehicle id="816" type="4" route="49" depart="13160.561183"/>
<vehicle id="430" type="4" route="11" depart="13214.984149"/>
<vehicle id="407" type="9" route="33" depart="13286.471431"/>
<vehicle id="867" type="2" route="68" depart="13306.678816"/>
<vehicle id="229" type="6" route="42" depart="13333.588209"/>
<vehicle id="808" type="4" route="63" depart="13335.136582"/>
<vehicle id="378" type="5" route="48" depart="13370.351879"/>
<vehicle id="419" type="9" route="26" depart="13381.902448"/>
<vehicle id="300" type="2" route="56" depart="13403.146603"/>
<vehicle id="849" type="3" route="28" depart="13424.937696"/>
<vehicle id="2" type="1" route="16" depart="13431.650595"/>
<vehicle id="158" type="8" route="58" depart="13432.698536"/>
<vehicle id="503" type="6" route="57" depart="13462.538441"/>
<vehicle id="18" type="7" route="33" depart="13689.135465"/>
<vehicle id="511" type="1" route="59" depart="13693.470075"/>
<vehicle id="531" type="9" route="30" depart="13701.852333"/>
<vehicle id="231" type="8" route="63" depart="13724.513863"/>
<vehicle id="647" type="3" route="31" depart="13736.341623"/>
<vehicle id="484" type="6" route="7" depart="13759.456387"/>
<vehicle id="713" type="1" route="62" depart="13780.764088"/>
<vehicle id="1" type="4" route="77" depart="13799.391122"/>
<vehicle id="960" type="4" route="73" depart="13810.675563"/>
<vehicle id="87" type="8" route="40" depart="13847.854995"/>
<vehicle id="55" type="4" route="54" depart="13855.558227"/>
<vehicle id="785" type="9" route="36" depart="13943.890940"/>
<vehicle id="147" type="3" route="21" depart="13969.173731"/>
<vehicle id="581" type="8" route="46" depart="14024.385860"/>
<vehicle id="155" type="5" route="11" depart="14075.732355"/>
<vehicle id="967" type="8" route="41" depart="14089.853506"/>
<vehicle id="616" type="6" route="73" depart="14114.769061"/>
<vehicle id="77" type="2" route="74" depart="14144.273637"/>
<vehicle id="293" type="5" route="40" depart="14173.809223"/>
<vehicle id="646" type="3" route="56" depart="14193.659652"/>
<vehicle id="188" type="5" route="41" depart="14284.265675"/>
<vehicle id="423" type="9" route="36" depart="14295.260221"/>
<vehicle id="518" type="1" route="24" depart="14329.436092"/>
<vehicle id="623" type="8" route="43" depart="14429.393092"/>
<vehicle id="416" type="2" route="15" depart="14456.058250"/>
<vehicle id="859" type="5" route="25" depart="14458.677189"/>
<vehicle id="510" type="5" route="20" depart="14575.203657"/>
<vehicle id="183" type="1" route="46" depart="14584.840832"/>
<vehicle id="267" type="6" route="21" depart="14656.846540"/>
<vehicle id="235" type="3" route="70" depart="14711.281369"/>