<routes>
<vType id="0" accel="0.552878" decel="1.826069" sigma="0.914174" length="1.603108" width="4.492892" minGap="4.576195" maxSpeed="1.637373" guiShape="passenger/van"/>
<vType id="1" accel="0.943407" decel="1.753259" sigma="0.786551" length="6.607521" width="5.703058" minGap="4.776345" maxSpeed="2.078068" guiShape="passenger/sedan"/>
<vType id="2" accel="1.196472" decel="1.528836" sigma="0.939650" length="9.324354" width="6.064154" minGap="1.908914" maxSpeed="1.437603" guiShape="bus"/>
<vType id="3" accel="0.720545" decel="0.851236" sigma="0.383043" length="5.370263" width="6.480659" minGap="1.337191" maxSpeed="1.384317" guiShape="passenger/sedan"/>
<vType id="4" accel="1.236878" decel="1.402639" sigma="0.038783" length="9.006168" width="3.983447" minGap="3.138214" maxSpeed="3.731292" guiShape="rail/cargo"/>
<vType id="5" accel="1.799211" decel="0.089454" sigma="0.817386" length="3.727495" width="3.523120" minGap="5.424573" maxSpeed="3.483952" guiShape="passenger"/>
<vType id="6" accel="1.744355" decel="0.312052" sigma="0.974219" length="4.987996" width="8.432410" minGap="3.424780" maxSpeed="2.089696" guiShape="bus/overland"/>
<vType id="7" accel="0.416475" decel="0.462211" sigma="0.823969" length="7.668503" width="7.835440" minGap="8.804701" maxSpeed="4.106877" guiShape="bus"/>
<vType id="8" accel="0.359996" decel="0.656690" sigma="0.506795" length="2.220848" width="8.661658" minGap="8.913993" maxSpeed="0.154451" guiShape="passenger/hatchback"/>
<vType id="9" accel="1.674213" decel="1.682105" sigma="0.249490" length="5.108038" width="9.262280" minGap="7.341706" maxSpeed="1.377148" guiShape="rail/slow"/>
<route id="0" edges="0 2 4 6 8"/>
<route id="1" edges="1"/>
<route id="2" edges="2 4 6 8"/>
<route id="3" edges="3 1"/>
<route id="4" edges="4 6 8"/>
<route id="5" edges="5 3 41"/>
<route id="6" edges="6 8"/>
<route id="7" edges="7 5 43"/>
<route id="8" edges="8"/>
<route id="9" edges="9 7 45"/>
<route id="10" edges="10 12 14 16 18"/>
<route id="11" edges="11"/>
<route id="12" edges="12 14 16 18"/>
<route id="13" edges="13 11"/>
<route id="14" edges="14 16 18"/>
<route id="15" edges="15 13 49 1"/>
<route id="16" edges="16 18"/>
<route id="17" edges="17 15 51 3 41"/>
<route id="18" edges="18"/>
<route id="19" edges="19 17 53 5 43"/>
<route id="20" edges="20 22 24 26 28"/>
<route id="21" edges="21"/>
<route id="22" edges="22 24 26 28"/>
<route id="23" edges="23 21"/>
<route id="24" edges="24 26 28"/>
<route id="25" edges="25 23 57 11"/>
<route id="26" edges="26 28"/>
<route id="27" edges="27 25 59 13 49 1"/>
<route id="28" edges="28"/>
<route id="29" edges="29 27 61 15 51 3 41"/>
<route id="30" edges="30 32 34 36 38"/>
<route id="31" edges="31"/>
<route id="32" edges="32 34 36 38"/>
<route id="33" edges="33 31"/>
<route id="34" edges="34 36 38"/>
<route id="35" edges="35 33 65 21"/>
<route id="36" edges="36 38"/>
<route id="37" edges="37 35 67 23 57 11"/>
<route id="38" edges="38"/>
<route id="39" edges="39 37 69 25 59 13 49 1"/>
<route id="40" edges="40 1"/>
<route id="41" edges="41"/>
<route id="42" edges="42 3 41"/>
<route id="43" edges="43"/>
<route id="44" edges="44 5 43"/>
<route id="45" edges="45"/>
<route id="46" edges="46 7 45"/>
<route id="47" edges="47"/>
<route id="48" edges="48 11"/>
<route id="49" edges="49 1"/>
<route id="50" edges="50 13 49 1"/>
<route id="51" edges="51 3 41"/>
<route id="52" edges="52 15 51 3 41"/>
<route id="53" edges="53 5 43"/>
<route id="54" edges="54 17 53 5 43"/>
<route id="55" edges="55 7 45"/>
<route id="56" edges="56 21"/>
<route id="57" edges="57 11"/>
<route id="58" edges="58 23 57 11"/>
<route id="59" edges="59 13 49 1"/>
<route id="60" edges="60 25 59 13 49 1"/>
<route id="61" edges="61 15 51 3 41"/>
<route id="62" edges="62 27 61 15 51 3 41"/>
<route id="63" edges="63 17 53 5 43"/>
<route id="64" edges="64 31"/>
<route id="65" edges="65 21"/>
<route id="66" edges="66 33 65 21"/>
<route id="67" edges="67 23 57 11"/>
<route id="68" edges="68 35 67 23 57 11"/>
<route id="69" edges="69 25 59 13 49 1"/>
<route id="70" edges="70 37 69 25 59 13 49 1"/>
<route id="71" edges="71 27 61 15 51 3 41"/>
<route id="72" edges="72"/>
<route id="73" edges="73 31"/>
<route id="74" edges="74"/>
<route id="75" edges="75 33 65 21"/>
<route id="76" edges="76"/>
<route id="77" edges="77 35 67 23 57 11"/>
<route id="78" edges="78"/>
<route id="79" edges="79 37 69 25 59 13 49 1"/>
<vehicle id="49" type="2" route="30" depart="5.067763"/>
<vehicle id="93" type="4" route="29" depart="10.373843"/>
<vehicle id="61" type="4" route="52" depart="13.450834"/>
<vehicle id="48" type="9" route="31" depart="13.581115"/>
<vehicle id="73" type="7" route="24" depart="14.186055"/>
<vehicle id="46" type="5" route="61" depart="31.694884"/>
<vehicle id="82" type="3" route="59" depart="34.199449"/>
<vehicle id="69" type="2" route="66" depart="37.769125"/>
<vehicle id="17" type="6" route="24" depart="38.917631"/>
<vehicle id="95" type="2" route="73" depart="40.657493"/>
<vehicle id="89" type="6" route="63" depart="40.700360"/>
<vehicle id="70" type="7" route="10" depart="41.044519"/>
<vehicle id="0" type="5" route="51" depart="44.594229"/>
<vehicle id="30" type="2" route="8" depart="46.059890"/>
<vehicle id="52" type="7" route="28" depart="46.415088"/>
<vehicle id="59" type="3" route="58" depart="47.234080"/>
<vehicle id="20" type="9" route="24" depart="53.974547"/>
<vehicle id="53" type="4" route="47" depart="60.127267"/>
<vehicle id="60" type="7" route="47" depart="60.834507"/>
<vehicle id="80" type="5" route="8" depart="62.892651"/>
<vehicle id="43" type="5" route="50" depart="63.656736"/>
<vehicle id="92" type="8" route="54" depart="65.253802"/>
<vehicle id="86" type="1" route="65" depart="65.832991"/>
<vehicle id="57" type="9" route="29" depart="67.833372"/>
<vehicle id="50" type="3" route="66" depart="68.607616"/>
<vehicle id="71" type="1" route="16" depart="71.909779"/>
<vehicle id="72" type="3" route="42" depart="72.602348"/>
<vehicle id="51" type="7" route="50" depart="89.576324"/>
<vehicle id="10" type="6" route="1" depart="90.860559"/>
<vehicle id="78" type="7" route="9" depart="92.121157"/>
<vehicle id="96" type="4" route="4" depart="94.180632"/>
<vehicle id="87" type="4" route="77" depart="97.859913"/>
<vehicle id="44" type="6" route="1" depart="98.470030"/>
<vehicle id="4" type="7" route="55" depart="102.624976"/>
<vehicle id="54" type="8" route="24" depart="104.698005"/>
<vehicle id="79" type="3" route="79" depart="106.567984"/>
<vehicle id="34" type="3" route="63" depart="119.274169"/>
<vehicle id="32" type="2" route="54" depart="120.827687"/>
<vehicle id="55" type="7" route="48" depart="121.620654"/>
<vehicle id="99" type="9" route="53" depart="121.788231"/>
<vehicle id="56" type="8" route="79" depart="123.383822"/>
<vehicle id="84" type="6" route="14" depart="128.709866"/>
<vehicle id="12" type="6" route="34" depart="135.531163"/>
<vehicle id="38" type="5" route="69" depart="137.400919"/>
<vehicle id="14" type="7" route="66" depart="142.974914"/>
<vehicle id="58" type="9" route="73" depart="145.220992"/>
<vehicle id="47" type="6" route="51" depart="145.221653"/>
<vehicle id="40" type="2" route="16" depart="147.309065"/>
<vehicle id="7" type="7" route="22" depart="147.422591"/>
<vehicle id="24" type="9" route="21" depart="150.683647"/>
<vehicle id="41" type="6" route="72" depart="164.725716"/>
<vehicle id="13" type="4" route="20" depart="168.011286"/>
<vehicle id="28" type="9" route="54" depart="182.633348"/>
<vehicle id="77" type="2" route="8" depart="184.213925"/>
<vehicle id="62" type="8" route="21" depart="192.504036"/>
<vehicle id="65" type="4" route="31" depart="197.021659"/>
<vehicle id="98" type="7" route="46" depart="203.404401"/>
<vehicle id="5" type="4" route="13" depart="206.012902"/>
<vehicle id="36" type="5" route="69" depart="210.086863"/>
<vehicle id="2" type="2" route="69" depart="211.276889"/>
<vehicle id="91" type="2" route="33" depart="212.670109"/>
<vehicle id="1" type="1" route="30" depart="213.855694"/>
<vehicle id="68" type="6" route="22" depart="218.028361"/>
<vehicle id="18" type="1" route="79" depart="230.614108"/>
<vehicle id="16" type="8" route="30" depart="233.043163"/>
<vehicle id="9" type="1" route="73" depart="233.053760"/>
<vehicle id="6" type="9" route="68" depart="233.056761"/>
<vehicle id="23" type="7" route="57" depart="235.944205"/>
<vehicle id="22" type="8" route="48" depart="237.790917"/>
<vehicle id="67" type="6" route="24" depart="238.199247"/>
<vehicle id="63" type="1" route="79" depart="238.309170"/>
<vehicle id="15" type="1" route="41" depart="238.447963"/>
<vehicle id="76" type="9" route="66" depart="240.847895"/>
<vehicle id="75" type="3" route="1" depart="241.787928"/>
<vehicle id="97" type="3" route="56" depart="244.054412"/>
<vehicle id="64" type="6" route="2" depart="248.309909"/>
<vehicle id="66" type="5" route="13" depart="250.269131"/>
<vehicle id="25" type="4" route="3" depart="254.904825"/>
<vehicle id="19" type="8" route="21" depart="255.993759"/>
<vehicle id="26" type="6" route="16" depart="261.557956"/>
<vehicle id="33" type="1" route="29" depart="267.915575"/>
<vehicle id="31" type="3" route="64" depart="274.650559"/>
<vehicle id="45" type="7" route="14" depart="275.214145"/>
<vehicle id="8" type="1" route="62" depart="276.326182"/>
<vehicle id="42" type="3" route="57" depart="280.418824"/>
<vehicle id="27" type="3" route="43" depart="282.562940"/>
<vehicle id="88" type="4" route="68" depart="287.963675"/>
<vehicle id="81" type="1" route="23" depart="288.574597"/>
<vehicle id="21" type="7" route="72" depart="289.954736"/>
<vehicle id="35" type="3" route="24" depart="306.437000"/>
<vehicle id="83" type="7" route="4" depart="306.719541"/>
<vehicle id="39" type="3" route="5" depart="307.526317"/>
<vehicle id="29" type="8" route="67" depart="315.538122"/>
<vehicle id="85" type="4" route="50" depart="316.251193"/>
<vehicle id="37" type="9" route="6" depart="320.193382"/>
<vehicle id="3" type="4" route="13" depart="322.017091"/>
<vehicle id="74" type="5" route="17" depart="335.924764"/>
<vehicle id="90" type="7" route="5" depart="339.288116"/>
<vehicle id="11" type="8" route="25" depart="348.128800"/>
<vehicle id="94" type="7" route="67" depart="350.440049"/>
</routes>