<?xml version="1.0" encoding="UTF-8"?>

<!-- generated on Mon Nov 11 19:41:32 2013 by SUMO duarouter Version 0.17.1
<?xml version="1.0" encoding="UTF-8"?>

<configuration xmlns:xsi="http://www.w3.org/2001/XMLSchema-instance" xsi:noNamespaceSchemaLocation="http://sumo.sf.net/xsd/duarouterConfiguration.xsd">

    <input>
        <net-file value="test.net.xml"/>
        <trip-files value="test.flow.xml"/>
    </input>

    <output>
        <output-file value="test.rou.xml"/>
    </output>

</configuration>
-->

<routes xmlns:xsi="http://www.w3.org/2001/XMLSchema-instance" xsi:noNamespaceSchemaLocation="http://sumo.sf.net/xsd/routes_file.xsd">
    <vehicle id="0.0" depart="0.00">
        <route edges="left0to0/0 0/0to0/1 0/1to1/1 1/1toright1 right1to1/1"/>
    </vehicle>
    <vehicle id="0.1" depart="7.50">
        <route edges="left0to0/0 0/0to0/1 0/1to1/1 1/1toright1 right1to1/1"/>
    </vehicle>
    <vehicle id="0.2" depart="15.00">
        <route edges="left0to0/0 0/0to0/1 0/1to1/1 1/1toright1 right1to1/1"/>
    </vehicle>
    <vehicle id="0.3" depart="22.50">
        <route edges="left0to0/0 0/0to0/1 0/1to1/1 1/1toright1 right1to1/1"/>
    </vehicle>
    <vehicle id="0.4" depart="30.00">
        <route edges="left0to0/0 0/0to0/1 0/1to1/1 1/1toright1 right1to1/1"/>
    </vehicle>
    <vehicle id="0.5" depart="37.50">
        <route edges="left0to0/0 0/0to0/1 0/1to1/1 1/1toright1 right1to1/1"/>
    </vehicle>
    <vehicle id="0.6" depart="45.00">
        <route edges="left0to0/0 0/0to0/1 0/1to1/1 1/1toright1 right1to1/1"/>
    </vehicle>
    <vehicle id="0.7" depart="52.50">
        <route edges="left0to0/0 0/0to0/1 0/1to1/1 1/1toright1 right1to1/1"/>
    </vehicle>
    <vehicle id="0.8" depart="60.00">
        <route edges="left0to0/0 0/0to0/1 0/1to1/1 1/1toright1 right1to1/1"/>
    </vehicle>
    <vehicle id="0.9" depart="67.50">
        <route edges="left0to0/0 0/0to0/1 0/1to1/1 1/1toright1 right1to1/1"/>
    </vehicle>
    <vehicle id="0.10" depart="75.00">
        <route edges="left0to0/0 0/0to0/1 0/1to1/1 1/1toright1 right1to1/1"/>
    </vehicle>
    <vehicle id="0.11" depart="82.50">
        <route edges="left0to0/0 0/0to0/1 0/1to1/1 1/1toright1 right1to1/1"/>
    </vehicle>
    <vehicle id="0.12" depart="90.00">
        <route edges="left0to0/0 0/0to0/1 0/1to1/1 1/1toright1 right1to1/1"/>
    </vehicle>
    <vehicle id="0.13" depart="97.50">
        <route edges="left0to0/0 0/0to0/1 0/1to1/1 1/1toright1 right1to1/1"/>
    </vehicle>
    <vehicle id="0.14" depart="105.00">
        <route edges="left0to0/0 0/0to0/1 0/1to1/1 1/1toright1 right1to1/1"/>
    </vehicle>
    <vehicle id="0.15" depart="112.50">
        <route edges="left0to0/0 0/0to0/1 0/1to1/1 1/1toright1 right1to1/1"/>
    </vehicle>
    <vehicle id="0.16" depart="120.00">
        <route edges="left0to0/0 0/0to0/1 0/1to1/1 1/1toright1 right1to1/1"/>
    </vehicle>
    <vehicle id="0.17" depart="127.50">
        <route edges="left0to0/0 0/0to0/1 0/1to1/1 1/1toright1 right1to1/1"/>
    </vehicle>
    <vehicle id="0.18" depart="135.00">
        <route edges="left0to0/0 0/0to0/1 0/1to1/1 1/1toright1 right1to1/1"/>
    </vehicle>
    <vehicle id="0.19" depart="142.50">
        <route edges="left0to0/0 0/0to0/1 0/1to1/1 1/1toright1 right1to1/1"/>
    </vehicle>
    <vehicle id="0.20" depart="150.00">
        <route edges="left0to0/0 0/0to0/1 0/1to1/1 1/1toright1 right1to1/1"/>
    </vehicle>
    <vehicle id="0.21" depart="157.50">
        <route edges="left0to0/0 0/0to0/1 0/1to1/1 1/1toright1 right1to1/1"/>
    </vehicle>
    <vehicle id="0.22" depart="165.00">
        <route edges="left0to0/0 0/0to0/1 0/1to1/1 1/1toright1 right1to1/1"/>
    </vehicle>
    <vehicle id="0.23" depart="172.50">
        <route edges="left0to0/0 0/0to0/1 0/1to1/1 1/1toright1 right1to1/1"/>
    </vehicle>
    <vehicle id="0.24" depart="180.00">
        <route edges="left0to0/0 0/0to0/1 0/1to1/1 1/1toright1 right1to1/1"/>
    </vehicle>
    <vehicle id="0.25" depart="187.50">
        <route edges="left0to0/0 0/0to0/1 0/1to1/1 1/1toright1 right1to1/1"/>
    </vehicle>
    <vehicle id="0.26" depart="195.00">
        <route edges="left0to0/0 0/0to0/1 0/1to1/1 1/1toright1 right1to1/1"/>
    </vehicle>
    <vehicle id="0.27" depart="202.50">
        <route edges="left0to0/0 0/0to0/1 0/1to1/1 1/1toright1 right1to1/1"/>
    </vehicle>
    <vehicle id="0.28" depart="210.00">
        <route edges="left0to0/0 0/0to0/1 0/1to1/1 1/1toright1 right1to1/1"/>
    </vehicle>
    <vehicle id="0.29" depart="217.50">
        <route edges="left0to0/0 0/0to0/1 0/1to1/1 1/1toright1 right1to1/1"/>
    </vehicle>
    <vehicle id="0.30" depart="225.00">
        <route edges="left0to0/0 0/0to0/1 0/1to1/1 1/1toright1 right1to1/1"/>
    </vehicle>
    <vehicle id="0.31" depart="232.50">
        <route edges="left0to0/0 0/0to0/1 0/1to1/1 1/1toright1 right1to1/1"/>
    </vehicle>
    <vehicle id="0.32" depart="240.00">
        <route edges="left0to0/0 0/0to0/1 0/1to1/1 1/1toright1 right1to1/1"/>
    </vehicle>
    <vehicle id="0.33" depart="247.50">
        <route edges="left0to0/0 0/0to0/1 0/1to1/1 1/1toright1 right1to1/1"/>
    </vehicle>
    <vehicle id="0.34" depart="255.00">
        <route edges="left0to0/0 0/0to0/1 0/1to1/1 1/1toright1 right1to1/1"/>
    </vehicle>
    <vehicle id="0.35" depart="262.50">
        <route edges="left0to0/0 0/0to0/1 0/1to1/1 1/1toright1 right1to1/1"/>
    </vehicle>
    <vehicle id="0.36" depart="270.00">
        <route edges="left0to0/0 0/0to0/1 0/1to1/1 1/1toright1 right1to1/1"/>
    </vehicle>
    <vehicle id="0.37" depart="277.50">
        <route edges="left0to0/0 0/0to0/1 0/1to1/1 1/1toright1 right1to1/1"/>
    </vehicle>
    <vehicle id="0.38" depart="285.00">
        <route edges="left0to0/0 0/0to0/1 0/1to1/1 1/1toright1 right1to1/1"/>
    </vehicle>
    <vehicle id="0.39" depart="292.50">
        <route edges="left0to0/0 0/0to0/1 0/1to1/1 1/1toright1 right1to1/1"/>
    </vehicle>
</routes>
