<?xml version="1.0" encoding="UTF-8"?>

<!-- generated on Sat Nov  2 14:41:41 2013 by SUMO netconvert Version 0.17.1
<?xml version="1.0" encoding="UTF-8"?>

<configuration xmlns:xsi="http://www.w3.org/2001/XMLSchema-instance" xsi:noNamespaceSchemaLocation="http://sumo.sf.net/xsd/netconvertConfiguration.xsd">

    <input>
        <node-files value="road_map/test.nod.xml"/>
        <edge-files value="road_map/test.edg.xml"/>
    </input>

    <output>
        <output-file value="road_map/test.net.xml"/>
    </output>

</configuration>
-->

<net version="0.13" xmlns:xsi="http://www.w3.org/2001/XMLSchema-instance" xsi:noNamespaceSchemaLocation="http://sumo.sf.net/xsd/net_file.xsd">

    <location netOffset="500.00,500.00" convBoundary="0.00,0.00,1000.00,1000.00" origBoundary="-500.00,-500.00,500.00,500.00" projParameter="!"/>

    <edge id=":1_0" function="internal">
        <lane id=":1_0_0" index="0" speed="96.32" length="4.82" shape="0.00,201.65 -1.24,200.83 -1.65,200.00 -1.24,199.18 0.00,198.35"/>
    </edge>
    <edge id=":10_0" function="internal">
        <lane id=":10_0_0" index="0" speed="64.78" length="5.00" shape="198.35,804.75 198.16,803.39 197.57,802.43 196.61,801.84 195.25,801.65"/>
    </edge>
    <edge id=":10_1" function="internal">
        <lane id=":10_1_0" index="0" speed="68.78" length="9.50" shape="198.35,804.75 198.35,795.25"/>
    </edge>
    <edge id=":10_2" function="internal">
        <lane id=":10_2_0" index="0" speed="60.26" length="3.18" shape="198.35,804.75 198.75,801.95 198.93,801.65"/>
    </edge>
    <edge id=":10_16" function="internal">
        <lane id=":10_16_0" index="0" speed="60.26" length="7.14" shape="198.93,801.65 199.95,799.95 201.95,798.75 204.75,798.35"/>
    </edge>
    <edge id=":10_3" function="internal">
        <lane id=":10_3_0" index="0" speed="69.56" length="2.41" shape="198.35,804.75 199.17,803.51 200.00,803.10"/>
    </edge>
    <edge id=":10_17" function="internal">
        <lane id=":10_17_0" index="0" speed="69.56" length="2.41" shape="200.00,803.10 200.82,803.51 201.65,804.75"/>
    </edge>
    <edge id=":10_4" function="internal">
        <lane id=":10_4_0" index="0" speed="60.26" length="5.00" shape="204.75,801.65 203.39,801.84 202.42,802.42 201.84,803.39 201.65,804.75"/>
    </edge>
    <edge id=":10_5" function="internal">
        <lane id=":10_5_0" index="0" speed="55.48" length="9.50" shape="204.75,801.65 195.25,801.65"/>
    </edge>
    <edge id=":10_6" function="internal">
        <lane id=":10_6_0" index="0" speed="59.48" length="3.18" shape="204.75,801.65 201.95,801.25 201.65,801.07"/>
    </edge>
    <edge id=":10_18" function="internal">
        <lane id=":10_18_0" index="0" speed="59.48" length="7.14" shape="201.65,801.07 199.95,800.05 198.75,798.05 198.35,795.25"/>
    </edge>
    <edge id=":10_7" function="internal">
        <lane id=":10_7_0" index="0" speed="50.95" length="2.41" shape="204.75,801.65 203.51,800.82 203.10,800.00"/>
    </edge>
    <edge id=":10_19" function="internal">
        <lane id=":10_19_0" index="0" speed="50.95" length="2.41" shape="203.10,800.00 203.51,799.17 204.75,798.35"/>
    </edge>
    <edge id=":10_8" function="internal">
        <lane id=":10_8_0" index="0" speed="59.48" length="5.00" shape="201.65,795.25 201.84,796.61 202.43,797.57 203.39,798.16 204.75,798.35"/>
    </edge>
    <edge id=":10_9" function="internal">
        <lane id=":10_9_0" index="0" speed="68.78" length="9.50" shape="201.65,795.25 201.65,804.75"/>
    </edge>
    <edge id=":10_10" function="internal">
        <lane id=":10_10_0" index="0" speed="64.00" length="3.18" shape="201.65,795.25 201.25,798.05 201.07,798.35"/>
    </edge>
    <edge id=":10_20" function="internal">
        <lane id=":10_20_0" index="0" speed="64.00" length="7.14" shape="201.07,798.35 200.05,800.05 198.05,801.25 195.25,801.65"/>
    </edge>
    <edge id=":10_11" function="internal">
        <lane id=":10_11_0" index="0" speed="68.00" length="2.41" shape="201.65,795.25 200.83,796.49 200.00,796.90"/>
    </edge>
    <edge id=":10_21" function="internal">
        <lane id=":10_21_0" index="0" speed="68.00" length="2.41" shape="200.00,796.90 199.18,796.49 198.35,795.25"/>
    </edge>
    <edge id=":10_12" function="internal">
        <lane id=":10_12_0" index="0" speed="64.00" length="5.00" shape="195.25,798.35 196.61,798.16 197.58,797.58 198.16,796.61 198.35,795.25"/>
    </edge>
    <edge id=":10_13" function="internal">
        <lane id=":10_13_0" index="0" speed="55.48" length="9.50" shape="195.25,798.35 204.75,798.35"/>
    </edge>
    <edge id=":10_14" function="internal">
        <lane id=":10_14_0" index="0" speed="64.78" length="3.18" shape="195.25,798.35 198.05,798.75 198.35,798.93"/>
    </edge>
    <edge id=":10_22" function="internal">
        <lane id=":10_22_0" index="0" speed="64.78" length="7.14" shape="198.35,798.93 200.05,799.95 201.25,801.95 201.65,804.75"/>
    </edge>
    <edge id=":10_15" function="internal">
        <lane id=":10_15_0" index="0" speed="60.00" length="2.41" shape="195.25,798.35 196.49,799.18 196.90,800.00"/>
    </edge>
    <edge id=":10_23" function="internal">
        <lane id=":10_23_0" index="0" speed="60.00" length="2.41" shape="196.90,800.00 196.49,800.83 195.25,801.65"/>
    </edge>
    <edge id=":11_0" function="internal">
        <lane id=":11_0_0" index="0" speed="69.56" length="4.82" shape="201.65,1000.00 200.83,1001.24 200.00,1001.65 199.18,1001.24 198.35,1000.00"/>
    </edge>
    <edge id=":12_0" function="internal">
        <lane id=":12_0_0" index="0" speed="98.82" length="4.82" shape="398.35,0.00 399.17,-1.24 400.00,-1.65 400.82,-1.24 401.65,0.00"/>
    </edge>
    <edge id=":13_0" function="internal">
        <lane id=":13_0_0" index="0" speed="45.56" length="5.00" shape="398.35,204.75 398.16,203.39 397.58,202.42 396.61,201.84 395.25,201.65"/>
    </edge>
    <edge id=":13_1" function="internal">
        <lane id=":13_1_0" index="0" speed="56.02" length="9.50" shape="398.35,204.75 398.35,195.25"/>
    </edge>
    <edge id=":13_2" function="internal">
        <lane id=":13_2_0" index="0" speed="21.39" length="3.18" shape="398.35,204.75 398.75,201.95 398.93,201.65"/>
    </edge>
    <edge id=":13_16" function="internal">
        <lane id=":13_16_0" index="0" speed="21.39" length="7.14" shape="398.93,201.65 399.95,199.95 401.95,198.75 404.75,198.35"/>
    </edge>
    <edge id=":13_3" function="internal">
        <lane id=":13_3_0" index="0" speed="13.22" length="2.41" shape="398.35,204.75 399.17,203.51 400.00,203.10"/>
    </edge>
    <edge id=":13_17" function="internal">
        <lane id=":13_17_0" index="0" speed="13.22" length="2.41" shape="400.00,203.10 400.82,203.51 401.65,204.75"/>
    </edge>
    <edge id=":13_4" function="internal">
        <lane id=":13_4_0" index="0" speed="21.39" length="5.00" shape="404.75,201.65 403.39,201.84 402.42,202.43 401.84,203.39 401.65,204.75"/>
    </edge>
    <edge id=":13_5" function="internal">
        <lane id=":13_5_0" index="0" speed="53.73" length="9.50" shape="404.75,201.65 395.25,201.65"/>
    </edge>
    <edge id=":13_6" function="internal">
        <lane id=":13_6_0" index="0" speed="64.18" length="3.18" shape="404.75,201.65 401.95,201.25 401.65,201.07"/>
    </edge>
    <edge id=":13_18" function="internal">
        <lane id=":13_18_0" index="0" speed="64.18" length="7.14" shape="401.65,201.07 399.95,200.05 398.75,198.05 398.35,195.25"/>
    </edge>
    <edge id=":13_7" function="internal">
        <lane id=":13_7_0" index="0" speed="29.55" length="2.41" shape="404.75,201.65 403.51,200.83 403.10,200.00"/>
    </edge>
    <edge id=":13_19" function="internal">
        <lane id=":13_19_0" index="0" speed="29.55" length="2.41" shape="403.10,200.00 403.51,199.18 404.75,198.35"/>
    </edge>
    <edge id=":13_8" function="internal">
        <lane id=":13_8_0" index="0" speed="64.18" length="5.00" shape="401.65,195.25 401.84,196.61 402.42,197.58 403.39,198.16 404.75,198.35"/>
    </edge>
    <edge id=":13_9" function="internal">
        <lane id=":13_9_0" index="0" speed="56.02" length="9.50" shape="401.65,195.25 401.65,204.75"/>
    </edge>
    <edge id=":13_10" function="internal">
        <lane id=":13_10_0" index="0" speed="88.36" length="3.18" shape="401.65,195.25 401.25,198.05 401.07,198.35"/>
    </edge>
    <edge id=":13_20" function="internal">
        <lane id=":13_20_0" index="0" speed="88.36" length="7.14" shape="401.07,198.35 400.05,200.05 398.05,201.25 395.25,201.65"/>
    </edge>
    <edge id=":13_11" function="internal">
        <lane id=":13_11_0" index="0" speed="98.82" length="2.41" shape="401.65,195.25 400.83,196.49 400.00,196.90"/>
    </edge>
    <edge id=":13_21" function="internal">
        <lane id=":13_21_0" index="0" speed="98.82" length="2.41" shape="400.00,196.90 399.18,196.49 398.35,195.25"/>
    </edge>
    <edge id=":13_12" function="internal">
        <lane id=":13_12_0" index="0" speed="88.36" length="5.00" shape="395.25,198.35 396.61,198.16 397.58,197.57 398.16,196.61 398.35,195.25"/>
    </edge>
    <edge id=":13_13" function="internal">
        <lane id=":13_13_0" index="0" speed="53.73" length="9.50" shape="395.25,198.35 404.75,198.35"/>
    </edge>
    <edge id=":13_14" function="internal">
        <lane id=":13_14_0" index="0" speed="45.56" length="3.18" shape="395.25,198.35 398.05,198.75 398.35,198.93"/>
    </edge>
    <edge id=":13_22" function="internal">
        <lane id=":13_22_0" index="0" speed="45.56" length="7.14" shape="398.35,198.93 400.05,199.95 401.25,201.95 401.65,204.75"/>
    </edge>
    <edge id=":13_15" function="internal">
        <lane id=":13_15_0" index="0" speed="77.90" length="2.41" shape="395.25,198.35 396.49,199.17 396.90,200.00"/>
    </edge>
    <edge id=":13_23" function="internal">
        <lane id=":13_23_0" index="0" speed="77.90" length="2.41" shape="396.90,200.00 396.49,200.82 395.25,201.65"/>
    </edge>
    <edge id=":14_0" function="internal">
        <lane id=":14_0_0" index="0" speed="61.55" length="5.00" shape="398.35,404.75 398.16,403.39 397.58,402.42 396.61,401.84 395.25,401.65"/>
    </edge>
    <edge id=":14_1" function="internal">
        <lane id=":14_1_0" index="0" speed="25.76" length="9.50" shape="398.35,404.75 398.35,395.25"/>
    </edge>
    <edge id=":14_2" function="internal">
        <lane id=":14_2_0" index="0" speed="64.05" length="3.18" shape="398.35,404.75 398.75,401.95 398.93,401.65"/>
    </edge>
    <edge id=":14_16" function="internal">
        <lane id=":14_16_0" index="0" speed="64.05" length="7.14" shape="398.93,401.65 399.95,399.95 401.95,398.75 404.75,398.35"/>
    </edge>
    <edge id=":14_3" function="internal">
        <lane id=":14_3_0" index="0" speed="38.31" length="2.41" shape="398.35,404.75 399.17,403.51 400.00,403.10"/>
    </edge>
    <edge id=":14_17" function="internal">
        <lane id=":14_17_0" index="0" speed="38.31" length="2.41" shape="400.00,403.10 400.82,403.51 401.65,404.75"/>
    </edge>
    <edge id=":14_4" function="internal">
        <lane id=":14_4_0" index="0" speed="64.05" length="5.00" shape="404.75,401.65 403.39,401.84 402.42,402.42 401.84,403.39 401.65,404.75"/>
    </edge>
    <edge id=":14_5" function="internal">
        <lane id=":14_5_0" index="0" speed="87.29" length="9.50" shape="404.75,401.65 395.25,401.65"/>
    </edge>
    <edge id=":14_6" function="internal">
        <lane id=":14_6_0" index="0" speed="51.50" length="3.18" shape="404.75,401.65 401.95,401.25 401.65,401.07"/>
    </edge>
    <edge id=":14_18" function="internal">
        <lane id=":14_18_0" index="0" speed="51.50" length="7.14" shape="401.65,401.07 399.95,400.05 398.75,398.05 398.35,395.25"/>
    </edge>
    <edge id=":14_7" function="internal">
        <lane id=":14_7_0" index="0" speed="89.79" length="2.41" shape="404.75,401.65 403.51,400.83 403.10,400.00"/>
    </edge>
    <edge id=":14_19" function="internal">
        <lane id=":14_19_0" index="0" speed="89.79" length="2.41" shape="403.10,400.00 403.51,399.18 404.75,398.35"/>
    </edge>
    <edge id=":14_8" function="internal">
        <lane id=":14_8_0" index="0" speed="51.50" length="5.00" shape="401.65,395.25 401.84,396.61 402.42,397.58 403.39,398.16 404.75,398.35"/>
    </edge>
    <edge id=":14_9" function="internal">
        <lane id=":14_9_0" index="0" speed="25.76" length="9.50" shape="401.65,395.25 401.65,404.75"/>
    </edge>
    <edge id=":14_10" function="internal">
        <lane id=":14_10_0" index="0" speed="49.00" length="3.18" shape="401.65,395.25 401.25,398.05 401.07,398.35"/>
    </edge>
    <edge id=":14_20" function="internal">
        <lane id=":14_20_0" index="0" speed="49.00" length="7.14" shape="401.07,398.35 400.05,400.05 398.05,401.25 395.25,401.65"/>
    </edge>
    <edge id=":14_11" function="internal">
        <lane id=":14_11_0" index="0" speed="13.22" length="2.41" shape="401.65,395.25 400.83,396.49 400.00,396.90"/>
    </edge>
    <edge id=":14_21" function="internal">
        <lane id=":14_21_0" index="0" speed="13.22" length="2.41" shape="400.00,396.90 399.18,396.49 398.35,395.25"/>
    </edge>
    <edge id=":14_12" function="internal">
        <lane id=":14_12_0" index="0" speed="49.00" length="5.00" shape="395.25,398.35 396.61,398.16 397.58,397.58 398.16,396.61 398.35,395.25"/>
    </edge>
    <edge id=":14_13" function="internal">
        <lane id=":14_13_0" index="0" speed="87.29" length="9.50" shape="395.25,398.35 404.75,398.35"/>
    </edge>
    <edge id=":14_14" function="internal">
        <lane id=":14_14_0" index="0" speed="61.55" length="3.18" shape="395.25,398.35 398.05,398.75 398.35,398.93"/>
    </edge>
    <edge id=":14_22" function="internal">
        <lane id=":14_22_0" index="0" speed="61.55" length="7.14" shape="398.35,398.93 400.05,399.95 401.25,401.95 401.65,404.75"/>
    </edge>
    <edge id=":14_15" function="internal">
        <lane id=":14_15_0" index="0" speed="84.79" length="2.41" shape="395.25,398.35 396.49,399.17 396.90,400.00"/>
    </edge>
    <edge id=":14_23" function="internal">
        <lane id=":14_23_0" index="0" speed="84.79" length="2.41" shape="396.90,400.00 396.49,400.82 395.25,401.65"/>
    </edge>
    <edge id=":15_0" function="internal">
        <lane id=":15_0_0" index="0" speed="20.20" length="5.00" shape="398.35,604.75 398.16,603.39 397.58,602.42 396.61,601.84 395.25,601.65"/>
    </edge>
    <edge id=":15_1" function="internal">
        <lane id=":15_1_0" index="0" speed="24.27" length="9.50" shape="398.35,604.75 398.35,595.25"/>
    </edge>
    <edge id=":15_2" function="internal">
        <lane id=":15_2_0" index="0" speed="29.87" length="3.18" shape="398.35,604.75 398.75,601.95 398.93,601.65"/>
    </edge>
    <edge id=":15_16" function="internal">
        <lane id=":15_16_0" index="0" speed="29.87" length="7.14" shape="398.93,601.65 399.95,599.95 401.95,598.75 404.75,598.35"/>
    </edge>
    <edge id=":15_3" function="internal">
        <lane id=":15_3_0" index="0" speed="10.24" length="2.41" shape="398.35,604.75 399.17,603.51 400.00,603.10"/>
    </edge>
    <edge id=":15_17" function="internal">
        <lane id=":15_17_0" index="0" speed="10.24" length="2.41" shape="400.00,603.10 400.82,603.51 401.65,604.75"/>
    </edge>
    <edge id=":15_4" function="internal">
        <lane id=":15_4_0" index="0" speed="29.87" length="5.00" shape="404.75,601.65 403.39,601.84 402.42,602.42 401.84,603.39 401.65,604.75"/>
    </edge>
    <edge id=":15_5" function="internal">
        <lane id=":15_5_0" index="0" speed="39.83" length="9.50" shape="404.75,601.65 395.25,601.65"/>
    </edge>
    <edge id=":15_6" function="internal">
        <lane id=":15_6_0" index="0" speed="43.90" length="3.18" shape="404.75,601.65 401.95,601.25 401.65,601.07"/>
    </edge>
    <edge id=":15_18" function="internal">
        <lane id=":15_18_0" index="0" speed="43.90" length="7.14" shape="401.65,601.07 399.95,600.05 398.75,598.05 398.35,595.25"/>
    </edge>
    <edge id=":15_7" function="internal">
        <lane id=":15_7_0" index="0" speed="49.49" length="2.41" shape="404.75,601.65 403.51,600.82 403.10,600.00"/>
    </edge>
    <edge id=":15_19" function="internal">
        <lane id=":15_19_0" index="0" speed="49.49" length="2.41" shape="403.10,600.00 403.51,599.17 404.75,598.35"/>
    </edge>
    <edge id=":15_8" function="internal">
        <lane id=":15_8_0" index="0" speed="43.90" length="5.00" shape="401.65,595.25 401.84,596.61 402.42,597.58 403.39,598.16 404.75,598.35"/>
    </edge>
    <edge id=":15_9" function="internal">
        <lane id=":15_9_0" index="0" speed="24.27" length="9.50" shape="401.65,595.25 401.65,604.75"/>
    </edge>
    <edge id=":15_10" function="internal">
        <lane id=":15_10_0" index="0" speed="34.24" length="3.18" shape="401.65,595.25 401.25,598.05 401.07,598.35"/>
    </edge>
    <edge id=":15_20" function="internal">
        <lane id=":15_20_0" index="0" speed="34.24" length="7.14" shape="401.07,598.35 400.05,600.05 398.05,601.25 395.25,601.65"/>
    </edge>
    <edge id=":15_11" function="internal">
        <lane id=":15_11_0" index="0" speed="38.31" length="2.41" shape="401.65,595.25 400.83,596.49 400.00,596.90"/>
    </edge>
    <edge id=":15_21" function="internal">
        <lane id=":15_21_0" index="0" speed="38.31" length="2.41" shape="400.00,596.90 399.18,596.49 398.35,595.25"/>
    </edge>
    <edge id=":15_12" function="internal">
        <lane id=":15_12_0" index="0" speed="34.24" length="5.00" shape="395.25,598.35 396.61,598.16 397.58,597.58 398.16,596.61 398.35,595.25"/>
    </edge>
    <edge id=":15_13" function="internal">
        <lane id=":15_13_0" index="0" speed="39.83" length="9.50" shape="395.25,598.35 404.75,598.35"/>
    </edge>
    <edge id=":15_14" function="internal">
        <lane id=":15_14_0" index="0" speed="20.20" length="3.18" shape="395.25,598.35 398.05,598.75 398.35,598.93"/>
    </edge>
    <edge id=":15_22" function="internal">
        <lane id=":15_22_0" index="0" speed="20.20" length="7.14" shape="398.35,598.93 400.05,599.95 401.25,601.95 401.65,604.75"/>
    </edge>
    <edge id=":15_15" function="internal">
        <lane id=":15_15_0" index="0" speed="30.16" length="2.41" shape="395.25,598.35 396.49,599.18 396.90,600.00"/>
    </edge>
    <edge id=":15_23" function="internal">
        <lane id=":15_23_0" index="0" speed="30.16" length="2.41" shape="396.90,600.00 396.49,600.83 395.25,601.65"/>
    </edge>
    <edge id=":16_0" function="internal">
        <lane id=":16_0_0" index="0" speed="69.53" length="5.00" shape="398.35,804.75 398.16,803.39 397.58,802.43 396.61,801.84 395.25,801.65"/>
    </edge>
    <edge id=":16_1" function="internal">
        <lane id=":16_1_0" index="0" speed="49.17" length="9.50" shape="398.35,804.75 398.35,795.25"/>
    </edge>
    <edge id=":16_2" function="internal">
        <lane id=":16_2_0" index="0" speed="69.03" length="3.18" shape="398.35,804.75 398.75,801.95 398.93,801.65"/>
    </edge>
    <edge id=":16_16" function="internal">
        <lane id=":16_16_0" index="0" speed="69.03" length="7.14" shape="398.93,801.65 399.95,799.95 401.95,798.75 404.75,798.35"/>
    </edge>
    <edge id=":16_3" function="internal">
        <lane id=":16_3_0" index="0" speed="88.10" length="2.41" shape="398.35,804.75 399.17,803.51 400.00,803.10"/>
    </edge>
    <edge id=":16_17" function="internal">
        <lane id=":16_17_0" index="0" speed="88.10" length="2.41" shape="400.00,803.10 400.82,803.51 401.65,804.75"/>
    </edge>
    <edge id=":16_4" function="internal">
        <lane id=":16_4_0" index="0" speed="69.03" length="5.00" shape="404.75,801.65 403.39,801.84 402.42,802.42 401.84,803.39 401.65,804.75"/>
    </edge>
    <edge id=":16_5" function="internal">
        <lane id=":16_5_0" index="0" speed="50.46" length="9.50" shape="404.75,801.65 395.25,801.65"/>
    </edge>
    <edge id=":16_6" function="internal">
        <lane id=":16_6_0" index="0" speed="30.10" length="3.18" shape="404.75,801.65 401.95,801.25 401.65,801.07"/>
    </edge>
    <edge id=":16_18" function="internal">
        <lane id=":16_18_0" index="0" speed="30.10" length="7.14" shape="401.65,801.07 399.95,800.05 398.75,798.05 398.35,795.25"/>
    </edge>
    <edge id=":16_7" function="internal">
        <lane id=":16_7_0" index="0" speed="49.96" length="2.41" shape="404.75,801.65 403.51,800.82 403.10,800.00"/>
    </edge>
    <edge id=":16_19" function="internal">
        <lane id=":16_19_0" index="0" speed="49.96" length="2.41" shape="403.10,800.00 403.51,799.17 404.75,798.35"/>
    </edge>
    <edge id=":16_8" function="internal">
        <lane id=":16_8_0" index="0" speed="30.10" length="5.00" shape="401.65,795.25 401.84,796.61 402.42,797.57 403.39,798.16 404.75,798.35"/>
    </edge>
    <edge id=":16_9" function="internal">
        <lane id=":16_9_0" index="0" speed="49.17" length="9.50" shape="401.65,795.25 401.65,804.75"/>
    </edge>
    <edge id=":16_10" function="internal">
        <lane id=":16_10_0" index="0" speed="30.60" length="3.18" shape="401.65,795.25 401.25,798.05 401.07,798.35"/>
    </edge>
    <edge id=":16_20" function="internal">
        <lane id=":16_20_0" index="0" speed="30.60" length="7.14" shape="401.07,798.35 400.05,800.05 398.05,801.25 395.25,801.65"/>
    </edge>
    <edge id=":16_11" function="internal">
        <lane id=":16_11_0" index="0" speed="10.24" length="2.41" shape="401.65,795.25 400.83,796.49 400.00,796.90"/>
    </edge>
    <edge id=":16_21" function="internal">
        <lane id=":16_21_0" index="0" speed="10.24" length="2.41" shape="400.00,796.90 399.18,796.49 398.35,795.25"/>
    </edge>
    <edge id=":16_12" function="internal">
        <lane id=":16_12_0" index="0" speed="30.60" length="5.00" shape="395.25,798.35 396.61,798.16 397.58,797.58 398.16,796.61 398.35,795.25"/>
    </edge>
    <edge id=":16_13" function="internal">
        <lane id=":16_13_0" index="0" speed="50.46" length="9.50" shape="395.25,798.35 404.75,798.35"/>
    </edge>
    <edge id=":16_14" function="internal">
        <lane id=":16_14_0" index="0" speed="69.53" length="3.18" shape="395.25,798.35 398.05,798.75 398.35,798.93"/>
    </edge>
    <edge id=":16_22" function="internal">
        <lane id=":16_22_0" index="0" speed="69.53" length="7.14" shape="398.35,798.93 400.05,799.95 401.25,801.95 401.65,804.75"/>
    </edge>
    <edge id=":16_15" function="internal">
        <lane id=":16_15_0" index="0" speed="50.95" length="2.41" shape="395.25,798.35 396.49,799.18 396.90,800.00"/>
    </edge>
    <edge id=":16_23" function="internal">
        <lane id=":16_23_0" index="0" speed="50.95" length="2.41" shape="396.90,800.00 396.49,800.83 395.25,801.65"/>
    </edge>
    <edge id=":17_0" function="internal">
        <lane id=":17_0_0" index="0" speed="88.10" length="4.82" shape="401.65,1000.00 400.83,1001.24 400.00,1001.65 399.18,1001.24 398.35,1000.00"/>
    </edge>
    <edge id=":18_0" function="internal">
        <lane id=":18_0_0" index="0" speed="77.35" length="4.82" shape="598.35,0.00 599.18,-1.24 600.00,-1.65 600.83,-1.24 601.65,0.00"/>
    </edge>
    <edge id=":19_0" function="internal">
        <lane id=":19_0_0" index="0" speed="21.43" length="5.00" shape="598.35,204.75 598.16,203.39 597.58,202.42 596.61,201.84 595.25,201.65"/>
    </edge>
    <edge id=":19_1" function="internal">
        <lane id=":19_1_0" index="0" speed="45.33" length="9.50" shape="598.35,204.75 598.35,195.25"/>
    </edge>
    <edge id=":19_2" function="internal">
        <lane id=":19_2_0" index="0" speed="33.07" length="3.18" shape="598.35,204.75 598.75,201.95 598.93,201.65"/>
    </edge>
    <edge id=":19_16" function="internal">
        <lane id=":19_16_0" index="0" speed="33.07" length="7.14" shape="598.93,201.65 599.95,199.95 601.95,198.75 604.75,198.35"/>
    </edge>
    <edge id=":19_3" function="internal">
        <lane id=":19_3_0" index="0" speed="13.31" length="2.41" shape="598.35,204.75 599.18,203.51 600.00,203.10"/>
    </edge>
    <edge id=":19_17" function="internal">
        <lane id=":19_17_0" index="0" speed="13.31" length="2.41" shape="600.00,203.10 600.83,203.51 601.65,204.75"/>
    </edge>
    <edge id=":19_4" function="internal">
        <lane id=":19_4_0" index="0" speed="33.07" length="5.00" shape="604.75,201.65 603.39,201.84 602.42,202.43 601.84,203.39 601.65,204.75"/>
    </edge>
    <edge id=":19_5" function="internal">
        <lane id=":19_5_0" index="0" speed="41.19" length="9.50" shape="604.75,201.65 595.25,201.65"/>
    </edge>
    <edge id=":19_6" function="internal">
        <lane id=":19_6_0" index="0" speed="65.09" length="3.18" shape="604.75,201.65 601.95,201.25 601.65,201.07"/>
    </edge>
    <edge id=":19_18" function="internal">
        <lane id=":19_18_0" index="0" speed="65.09" length="7.14" shape="601.65,201.07 599.95,200.05 598.75,198.05 598.35,195.25"/>
    </edge>
    <edge id=":19_7" function="internal">
        <lane id=":19_7_0" index="0" speed="52.83" length="2.41" shape="604.75,201.65 603.51,200.83 603.10,200.00"/>
    </edge>
    <edge id=":19_19" function="internal">
        <lane id=":19_19_0" index="0" speed="52.83" length="2.41" shape="603.10,200.00 603.51,199.18 604.75,198.35"/>
    </edge>
    <edge id=":19_8" function="internal">
        <lane id=":19_8_0" index="0" speed="65.09" length="5.00" shape="601.65,195.25 601.84,196.61 602.42,197.58 603.39,198.16 604.75,198.35"/>
    </edge>
    <edge id=":19_9" function="internal">
        <lane id=":19_9_0" index="0" speed="45.33" length="9.50" shape="601.65,195.25 601.65,204.75"/>
    </edge>
    <edge id=":19_10" function="internal">
        <lane id=":19_10_0" index="0" speed="53.45" length="3.18" shape="601.65,195.25 601.25,198.05 601.07,198.35"/>
    </edge>
    <edge id=":19_20" function="internal">
        <lane id=":19_20_0" index="0" speed="53.45" length="7.14" shape="601.07,198.35 600.05,200.05 598.05,201.25 595.25,201.65"/>
    </edge>
    <edge id=":19_11" function="internal">
        <lane id=":19_11_0" index="0" speed="77.35" length="2.41" shape="601.65,195.25 600.82,196.49 600.00,196.90"/>
    </edge>
    <edge id=":19_21" function="internal">
        <lane id=":19_21_0" index="0" speed="77.35" length="2.41" shape="600.00,196.90 599.17,196.49 598.35,195.25"/>
    </edge>
    <edge id=":19_12" function="internal">
        <lane id=":19_12_0" index="0" speed="53.45" length="5.00" shape="595.25,198.35 596.61,198.16 597.58,197.57 598.16,196.61 598.35,195.25"/>
    </edge>
    <edge id=":19_13" function="internal">
        <lane id=":19_13_0" index="0" speed="41.19" length="9.50" shape="595.25,198.35 604.75,198.35"/>
    </edge>
    <edge id=":19_14" function="internal">
        <lane id=":19_14_0" index="0" speed="21.43" length="3.18" shape="595.25,198.35 598.05,198.75 598.35,198.93"/>
    </edge>
    <edge id=":19_22" function="internal">
        <lane id=":19_22_0" index="0" speed="21.43" length="7.14" shape="598.35,198.93 600.05,199.95 601.25,201.95 601.65,204.75"/>
    </edge>
    <edge id=":19_15" function="internal">
        <lane id=":19_15_0" index="0" speed="29.55" length="2.41" shape="595.25,198.35 596.49,199.17 596.90,200.00"/>
    </edge>
    <edge id=":19_23" function="internal">
        <lane id=":19_23_0" index="0" speed="29.55" length="2.41" shape="596.90,200.00 596.49,200.82 595.25,201.65"/>
    </edge>
    <edge id=":2_0" function="internal">
        <lane id=":2_0_0" index="0" speed="13.98" length="4.82" shape="0.00,401.65 -1.24,400.83 -1.65,400.00 -1.24,399.18 0.00,398.35"/>
    </edge>
    <edge id=":20_0" function="internal">
        <lane id=":20_0_0" index="0" speed="52.04" length="5.00" shape="598.35,404.75 598.16,403.39 597.58,402.42 596.61,401.84 595.25,401.65"/>
    </edge>
    <edge id=":20_1" function="internal">
        <lane id=":20_1_0" index="0" speed="13.80" length="9.50" shape="598.35,404.75 598.35,395.25"/>
    </edge>
    <edge id=":20_2" function="internal">
        <lane id=":20_2_0" index="0" speed="56.49" length="3.18" shape="598.35,404.75 598.75,401.95 598.93,401.65"/>
    </edge>
    <edge id=":20_16" function="internal">
        <lane id=":20_16_0" index="0" speed="56.49" length="7.14" shape="598.93,401.65 599.95,399.95 601.95,398.75 604.75,398.35"/>
    </edge>
    <edge id=":20_3" function="internal">
        <lane id=":20_3_0" index="0" speed="14.29" length="2.41" shape="598.35,404.75 599.18,403.51 600.00,403.10"/>
    </edge>
    <edge id=":20_17" function="internal">
        <lane id=":20_17_0" index="0" speed="14.29" length="2.41" shape="600.00,403.10 600.83,403.51 601.65,404.75"/>
    </edge>
    <edge id=":20_4" function="internal">
        <lane id=":20_4_0" index="0" speed="56.49" length="5.00" shape="604.75,401.65 603.39,401.84 602.42,402.42 601.84,403.39 601.65,404.75"/>
    </edge>
    <edge id=":20_5" function="internal">
        <lane id=":20_5_0" index="0" speed="94.24" length="9.50" shape="604.75,401.65 595.25,401.65"/>
    </edge>
    <edge id=":20_6" function="internal">
        <lane id=":20_6_0" index="0" speed="56.00" length="3.18" shape="604.75,401.65 601.95,401.25 601.65,401.07"/>
    </edge>
    <edge id=":20_18" function="internal">
        <lane id=":20_18_0" index="0" speed="56.00" length="7.14" shape="601.65,401.07 599.95,400.05 598.75,398.05 598.35,395.25"/>
    </edge>
    <edge id=":20_7" function="internal">
        <lane id=":20_7_0" index="0" speed="98.69" length="2.41" shape="604.75,401.65 603.51,400.83 603.10,400.00"/>
    </edge>
    <edge id=":20_19" function="internal">
        <lane id=":20_19_0" index="0" speed="98.69" length="2.41" shape="603.10,400.00 603.51,399.18 604.75,398.35"/>
    </edge>
    <edge id=":20_8" function="internal">
        <lane id=":20_8_0" index="0" speed="56.00" length="5.00" shape="601.65,395.25 601.84,396.61 602.42,397.58 603.39,398.16 604.75,398.35"/>
    </edge>
    <edge id=":20_9" function="internal">
        <lane id=":20_9_0" index="0" speed="13.80" length="9.50" shape="601.65,395.25 601.65,404.75"/>
    </edge>
    <edge id=":20_10" function="internal">