<edges><edge id="0" from="6" to="7" priority="5" numLanes="1" speed="18.632748"/>
<edge id="1" from="7" to="6" priority="5" numLanes="1" speed="18.632748"/>
<edge id="2" from="7" to="8" priority="99" numLanes="1" speed="37.516915"/>
<edge id="3" from="8" to="7" priority="99" numLanes="1" speed="37.516915"/>
<edge id="4" from="8" to="9" priority="92" numLanes="1" speed="69.080920"/>
<edge id="5" from="9" to="8" priority="92" numLanes="1" speed="69.080920"/>
<edge id="6" from="9" to="10" priority="98" numLanes="1" speed="86.212077"/>
<edge id="7" from="10" to="9" priority="98" numLanes="1" speed="86.212077"/>
<edge id="8" from="10" to="11" priority="14" numLanes="1" speed="87.816884"/>
<edge id="9" from="11" to="10" priority="14" numLanes="1" speed="87.816884"/>
<edge id="10" from="12" to="13" priority="14" numLanes="1" speed="85.983305"/>
<edge id="11" from="13" to="12" priority="14" numLanes="1" speed="85.983305"/>
<edge id="12" from="13" to="14" priority="70" numLanes="1" speed="48.814845"/>
<edge id="13" from="14" to="13" priority="70" numLanes="1" speed="48.814845"/>
<edge id="14" from="14" to="15" priority="17" numLanes="1" speed="91.525076"/>
<edge id="15" from="15" to="14" priority="17" numLanes="1" speed="91.525076"/>
<edge id="16" from="15" to="16" priority="16" numLanes="1" speed="57.868112"/>
<edge id="17" from="16" to="15" priority="16" numLanes="1" speed="57.868112"/>
<edge id="18" from="16" to="17" priority="50" numLanes="1" speed="80.112041"/>
<edge id="19" from="17" to="16" priority="50" numLanes="1" speed="80.112041"/>
<edge id="20" from="18" to="19" priority="8" numLanes="1" speed="77.064379"/>
<edge id="21" from="19" to="18" priority="8" numLanes="1" speed="77.064379"/>
<edge id="22" from="19" to="20" priority="26" numLanes="1" speed="4.575911"/>
<edge id="23" from="20" to="19" priority="26" numLanes="1" speed="4.575911"/>
<edge id="24" from="20" to="21" priority="52" numLanes="1" speed="24.393126"/>
<edge id="25" from="21" to="20" priority="52" numLanes="1" speed="24.393126"/>
<edge id="26" from="21" to="22" priority="53" numLanes="1" speed="54.994574"/>
<edge id="27" from="22" to="21" priority="53" numLanes="1" speed="54.994574"/>
<edge id="28" from="22" to="23" priority="1" numLanes="1" speed="8.269495"/>
<edge id="29" from="23" to="22" priority="1" numLanes="1" speed="8.269495"/>
<edge id="30" from="24" to="25" priority="39" numLanes="1" speed="26.055209"/>
<edge id="31" from="25" to="24" priority="39" numLanes="1" speed="26.055209"/>
<edge id="32" from="25" to="26" priority="95" numLanes="1" speed="75.819498"/>
<edge id="33" from="26" to="25" priority="95" numLanes="1" speed="75.819498"/>
<edge id="34" from="26" to="27" priority="100" numLanes="1" speed="33.709983"/>
<edge id="35" from="27" to="26" priority="100" numLanes="1" speed="33.709983"/>
<edge id="36" from="27" to="28" priority="22" numLanes="1" speed="46.401671"/>
<edge id="37" from="28" to="27" priority="22" numLanes="1" speed="46.401671"/>
<edge id="38" from="28" to="29" priority="13" numLanes="1" speed="84.837322"/>
<edge id="39" from="29" to="28" priority="13" numLanes="1" speed="84.837322"/>
<edge id="40" from="1" to="7" priority="37" numLanes="1" speed="5.762655"/>
<edge id="41" from="7" to="1" priority="37" numLanes="1" speed="5.762655"/>
<edge id="42" from="2" to="8" priority="69" numLanes="1" speed="37.535069"/>
<edge id="43" from="8" to="2" priority="69" numLanes="1" speed="37.535069"/>
<edge id="44" from="3" to="9" priority="59" numLanes="1" speed="46.485600"/>
<edge id="45" from="9" to="3" priority="59" numLanes="1" speed="46.485600"/>
<edge id="46" from="4" to="10" priority="36" numLanes="1" speed="96.705400"/>
<edge id="47" from="10" to="4" priority="36" numLanes="1" speed="96.705400"/>
<edge id="48" from="7" to="13" priority="96" numLanes="1" speed="66.088574"/>
<edge id="49" from="13" to="7" priority="96" numLanes="1" speed="66.088574"/>
<edge id="50" from="8" to="14" priority="42" numLanes="1" speed="98.937193"/>
<edge id="51" from="14" to="8" priority="42" numLanes="1" speed="98.937193"/>
<edge id="52" from="9" to="15" priority="85" numLanes="1" speed="21.812831"/>
<edge id="53" from="15" to="9" priority="85" numLanes="1" speed="21.812831"/>
<edge id="54" from="10" to="16" priority="61" numLanes="1" speed="72.155705"/>
<edge id="55" from="16" to="10" priority="61" numLanes="1" speed="72.155705"/>
<edge id="56" from="13" to="19" priority="44" numLanes="1" speed="77.802365"/>
<edge id="57" from="19" to="13" priority="44" numLanes="1" speed="77.802365"/>
<edge id="58" from="14" to="20" priority="5" numLanes="1" speed="34.161520"/>
<edge id="59" from="20" to="14" priority="5" numLanes="1" speed="34.161520"/>
<edge id="60" from="15" to="21" priority="37" numLanes="1" speed="74.055230"/>
<edge id="61" from="21" to="15" priority="37" numLanes="1" speed="74.055230"/>
<edge id="62" from="16" to="22" priority="9" numLanes="1" speed="49.574858"/>
<edge id="63" from="22" to="16" priority="9" numLanes="1" speed="49.574858"/>
<edge id="64" from="19" to="25" priority="61" numLanes="1" speed="55.894693"/>
<edge id="65" from="25" to="19" priority="61" numLanes="1" speed="55.894693"/>
<edge id="66" from="20" to="26" priority="40" numLanes="1" speed="1.386641"/>
<edge id="67" from="26" to="20" priority="40" numLanes="1" speed="1.386641"/>
<edge id="68" from="21" to="27" priority="33" numLanes="1" speed="24.741820"/>
<edge id="69" from="27" to="21" priority="33" numLanes="1" speed="24.741820"/>
<edge id="70" from="22" to="28" priority="8" numLanes="1" speed="96.740919"/>
<edge id="71" from="28" to="22" priority="8" numLanes="1" speed="96.740919"/>
<edge id="72" from="25" to="31" priority="47" numLanes="1" speed="50.670566"/>
<edge id="73" from="31" to="25" priority="47" numLanes="1" speed="50.670566"/>
<edge id="74" from="26" to="32" priority="8" numLanes="1" speed="10.381512"/>
<edge id="75" from="32" to="26" priority="8" numLanes="1" speed="10.381512"/>
<edge id="76" from="27" to="33" priority="39" numLanes="1" speed="60.250943"/>
<edge id="77" from="33" to="27" priority="39" numLanes="1" speed="60.250943"/>
<edge id="78" from="28" to="34" priority="65" numLanes="1" speed="45.410519"/>
<edge id="79" from="34" to="28" priority="65" numLanes="1" speed="45.410519"/>
</edges>