<node><node id="0" x="-500.000000" y="-500.000000" type="priority"/>
<node id="1" x="-500.000000" y="-300.000000" type="priority"/>
<node id="2" x="-500.000000" y="-100.000000" type="priority"/>
<node id="3" x="-500.000000" y="100.000000" type="priority"/>
<node id="4" x="-500.000000" y="300.000000" type="priority"/>
<node id="5" x="-500.000000" y="500.000000" type="priority"/>
<node id="6" x="-300.000000" y="-500.000000" type="priority"/>
<node id="7" x="-300.000000" y="-300.000000" type="traffic_light"/>
<node id="8" x="-300.000000" y="-100.000000" type="traffic_light"/>
<node id="9" x="-300.000000" y="100.000000" type="traffic_light"/>
<node id="10" x="-300.000000" y="300.000000" type="traffic_light"/>
<node id="11" x="-300.000000" y="500.000000" type="priority"/>
<node id="12" x="-100.000000" y="-500.000000" type="priority"/>
<node id="13" x="-100.000000" y="-300.000000" type="traffic_light"/>
<node id="14" x="-100.000000" y="-100.000000" type="traffic_light"/>
<node id="15" x="-100.000000" y="100.000000" type="traffic_light"/>
<node id="16" x="-100.000000" y="300.000000" type="traffic_light"/>
<node id="17" x="-100.000000" y="500.000000" type="priority"/>
<node id="18" x="100.000000" y="-500.000000" type="priority"/>
<node id="19" x="100.000000" y="-300.000000" type="traffic_light"/>
<node id="20" x="100.000000" y="-100.000000" type="traffic_light"/>
<node id="21" x="100.000000" y="100.000000" type="traffic_light"/>
<node id="22" x="100.000000" y="300.000000" type="traffic_light"/>
<node id="23" x="100.000000" y="500.000000" type="priority"/>
<node id="24" x="300.000000" y="-500.000000" type="priority"/>
<node id="25" x="300.000000" y="-300.000000" type="traffic_light"/>
<node id="26" x="300.000000" y="-100.000000" type="traffic_light"/>
<node id="27" x="300.000000" y="100.000000" type="traffic_light"/>
<node id="28" x="300.000000" y="300.000000" type="traffic_light"/>
<node id="29" x="300.000000" y="500.000000" type="priority"/>
<node id="30" x="500.000000" y="-500.000000" type="priority"/>
<node id="31" x="500.000000" y="-300.000000" type="priority"/>
<node id="32" x="500.000000" y="-100.000000" type="priority"/>
<node id="33" x="500.000000" y="100.000000" type="priority"/>
<node id="34" x="500.000000" y="300.000000" type="priority"/>
<node id="35" x="500.000000" y="500.000000" type="priority"/>
</node>