<routes>
<vType id="0" accel="1.790129" decel="0.632643" sigma="0.149929" length="7.889269" width="9.097183" minGap="8.248868" maxSpeed="4.013795" guiShape="bus/flexible"/>
<vType id="1" accel="1.338034" decel="1.377474" sigma="0.721283" length="6.898605" width="9.977222" minGap="3.334836" maxSpeed="2.098643" guiShape="transport"/>
<vType id="2" accel="0.118872" decel="1.430734" sigma="0.572042" length="2.709236" width="7.538949" minGap="3.001269" maxSpeed="2.677829" guiShape="rail/city"/>
<vType id="3" accel="1.817727" decel="1.360144" sigma="0.507315" length="8.608773" width="8.565748" minGap="8.888453" maxSpeed="0.913868" guiShape="passenger"/>
<vType id="4" accel="0.299491" decel="0.554371" sigma="0.808344" length="7.866264" width="2.647615" minGap="7.117411" maxSpeed="1.684806" guiShape="motorcycle"/>
<vType id="5" accel="0.742803" decel="1.501209" sigma="0.307085" length="8.092814" width="3.981854" minGap="3.345033" maxSpeed="1.477315" guiShape="rail/slow"/>
<vType id="6" accel="0.967546" decel="1.739467" sigma="0.583575" length="9.498709" width="1.640942" minGap="9.004835" maxSpeed="2.507382" guiShape="rail/fast"/>
<vType id="7" accel="0.794255" decel="0.631794" sigma="0.054062" length="8.688158" width="2.236287" minGap="2.802669" maxSpeed="2.051867" guiShape="bus/city"/>
<vType id="8" accel="1.817911" decel="0.942264" sigma="0.316383" length="7.441016" width="8.010471" minGap="5.388228" maxSpeed="3.158854" guiShape="passenger/sedan"/>
<vType id="9" accel="1.287273" decel="0.059191" sigma="0.273528" length="7.850740" width="2.517452" minGap="7.880354" maxSpeed="2.452990" guiShape="rail/light"/>
<route id="0" edges="0 2 4 6 8"/>
<route id="1" edges="1"/>
<route id="2" edges="2 4 6 8"/>
<route id="3" edges="3 1"/>
<route id="4" edges="4 6 8"/>
<route id="5" edges="5 3 41"/>
<route id="6" edges="6 8"/>
<route id="7" edges="7 5 43"/>
<route id="8" edges="8"/>
<route id="9" edges="9 7 45"/>
<route id="10" edges="10 12 14 16 18"/>
<route id="11" edges="11"/>
<route id="12" edges="12 14 16 18"/>
<route id="13" edges="13 11"/>
<route id="14" edges="14 16 18"/>
<route id="15" edges="15 13 49 1"/>
<route id="16" edges="16 18"/>
<route id="17" edges="17 15 51 3 41"/>
<route id="18" edges="18"/>
<route id="19" edges="19 17 53 5 43"/>
<route id="20" edges="20 22 24 26 28"/>
<route id="21" edges="21"/>
<route id="22" edges="22 24 26 28"/>
<route id="23" edges="23 21"/>
<route id="24" edges="24 26 28"/>
<route id="25" edges="25 23 57 11"/>
<route id="26" edges="26 28"/>
<route id="27" edges="27 25 59 13 49 1"/>
<route id="28" edges="28"/>
<route id="29" edges="29 27 61 15 51 3 41"/>
<route id="30" edges="30 32 34 36 38"/>
<route id="31" edges="31"/>
<route id="32" edges="32 34 36 38"/>
<route id="33" edges="33 31"/>
<route id="34" edges="34 36 38"/>
<route id="35" edges="35 33 65 21"/>
<route id="36" edges="36 38"/>
<route id="37" edges="37 35 67 23 57 11"/>
<route id="38" edges="38"/>
<route id="39" edges="39 37 69 25 59 13 49 1"/>
<route id="40" edges="40 1"/>
<route id="41" edges="41"/>
<route id="42" edges="42 3 41"/>
<route id="43" edges="43"/>
<route id="44" edges="44 5 43"/>
<route id="45" edges="45"/>
<route id="46" edges="46 7 45"/>
<route id="47" edges="47"/>
<route id="48" edges="48 11"/>
<route id="49" edges="49 1"/>
<route id="50" edges="50 13 49 1"/>
<route id="51" edges="51 3 41"/>
<route id="52" edges="52 15 51 3 41"/>
<route id="53" edges="53 5 43"/>
<route id="54" edges="54 17 53 5 43"/>
<route id="55" edges="55 7 45"/>
<route id="56" edges="56 21"/>
<route id="57" edges="57 11"/>
<route id="58" edges="58 23 57 11"/>
<route id="59" edges="59 13 49 1"/>
<route id="60" edges="60 25 59 13 49 1"/>
<route id="61" edges="61 15 51 3 41"/>
<route id="62" edges="62 27 61 15 51 3 41"/>
<route id="63" edges="63 17 53 5 43"/>
<route id="64" edges="64 31"/>
<route id="65" edges="65 21"/>
<route id="66" edges="66 33 65 21"/>
<route id="67" edges="67 23 57 11"/>
<route id="68" edges="68 35 67 23 57 11"/>
<route id="69" edges="69 25 59 13 49 1"/>
<route id="70" edges="70 37 69 25 59 13 49 1"/>
<route id="71" edges="71 27 61 15 51 3 41"/>
<route id="72" edges="72"/>
<route id="73" edges="73 31"/>
<route id="74" edges="74"/>
<route id="75" edges="75 33 65 21"/>
<route id="76" edges="76"/>
<route id="77" edges="77 35 67 23 57 11"/>
<route id="78" edges="78"/>
<route id="79" edges="79 37 69 25 59 13 49 1"/>
<vehicle id="65" type="4" route="45" depart="0.061098"/>
<vehicle id="28" type="9" route="27" depart="0.985680"/>
<vehicle id="726" type="8" route="43" depart="1.190650"/>
<vehicle id="174" type="3" route="34" depart="1.739478"/>
<vehicle id="760" type="1" route="39" depart="2.285848"/>
<vehicle id="237" type="6" route="10" depart="2.589859"/>
<vehicle id="347" type="3" route="19" depart="2.598475"/>
<vehicle id="139" type="9" route="43" depart="2.639011"/>
<vehicle id="641" type="4" route="8" depart="2.922931"/>
<vehicle id="130" type="8" route="78" depart="3.169331"/>
<vehicle id="566" type="6" route="51" depart="4.067016"/>
<vehicle id="440" type="6" route="48" depart="4.116377"/>
<vehicle id="691" type="2" route="69" depart="4.270694"/>
<vehicle id="802" type="3" route="45" depart="4.472277"/>
<vehicle id="111" type="3" route="44" depart="4.667486"/>
<vehicle id="924" type="1" route="46" depart="5.034352"/>
<vehicle id="148" type="6" route="35" depart="6.080749"/>
<vehicle id="466" type="2" route="56" depart="6.619865"/>
<vehicle id="994" type="7" route="15" depart="6.697196"/>
<vehicle id="393" type="4" route="15" depart="6.739148"/>
<vehicle id="976" type="3" route="27" depart="7.096316"/>
<vehicle id="17" type="6" route="52" depart="7.107036"/>
<vehicle id="476" type="5" route="74" depart="7.735845"/>
<vehicle id="703" type="3" route="16" depart="8.532170"/>
<vehicle id="455" type="3" route="47" depart="8.714459"/>
<vehicle id="806" type="8" route="60" depart="8.788851"/>
<vehicle id="971" type="4" route="59" depart="9.683943"/>
<vehicle id="334" type="2" route="67" depart="10.285665"/>
<vehicle id="910" type="4" route="57" depart="10.353433"/>
<vehicle id="570" type="7" route="49" depart="10.482257"/>
<vehicle id="618" type="8" route="36" depart="10.895088"/>
<vehicle id="959" type="5" route="76" depart="11.375468"/>
<vehicle id="583" type="7" route="25" depart="11.386158"/>
<vehicle id="848" type="2" route="45" depart="12.488072"/>
<vehicle id="671" type="8" route="23" depart="12.717446"/>
<vehicle id="259" type="3" route="14" depart="12.982008"/>
<vehicle id="744" type="6" route="74" depart="13.275960"/>
<vehicle id="765" type="9" route="49" depart="13.543636"/>
<vehicle id="429" type="9" route="13" depart="13.585068"/>
<vehicle id="225" type="5" route="49" depart="14.053163"/>
<vehicle id="212" type="2" route="50" depart="14.108711"/>
<vehicle id="693" type="9" route="54" depart="14.766341"/>
<vehicle id="846" type="2" route="19" depart="14.814524"/>
<vehicle id="371" type="3" route="50" depart="15.186930"/>
<vehicle id="287" type="7" route="43" depart="15.214726"/>
<vehicle id="776" type="8" route="60" depart="15.594294"/>
<vehicle id="467" type="6" route="53" depart="15.653523"/>
<vehicle id="74" type="5" route="56" depart="16.480120"/>
<vehicle id="36" type="1" route="60" depart="16.520071"/>
<vehicle id="49" type="2" route="33" depart="16.550037"/>
<vehicle id="447" type="1" route="46" depart="17.751995"/>
<vehicle id="747" type="2" route="14" depart="17.984879"/>
<vehicle id="443" type="5" route="18" depart="18.187133"/>
<vehicle id="952" type="2" route="8" depart="19.026871"/>
<vehicle id="145" type="3" route="7" depart="19.536506"/>
<vehicle id="520" type="4" route="49" depart="19.636800"/>
<vehicle id="363" type="8" route="76" depart="20.173804"/>
<vehicle id="740" type="9" route="3" depart="20.179603"/>
<vehicle id="43" type="2" route="55" depart="21.112702"/>
<vehicle id="916" type="8" route="41" depart="21.335485"/>
<vehicle id="194" type="2" route="39" depart="22.630018"/>
<vehicle id="943" type="9" route="78" depart="23.295748"/>
<vehicle id="975" type="6" route="72" depart="23.580085"/>
<vehicle id="917" type="2" route="20" depart="23.849050"/>
<vehicle id="817" type="2" route="45" depart="24.122129"/>
<vehicle id="274" type="1" route="10" depart="24.319534"/>
<vehicle id="551" type="4" route="30" depart="24.360004"/>
<vehicle id="125" type="2" route="15" depart="24.543529"/>
<vehicle id="390" type="9" route="44" depart="24.795570"/>
<vehicle id="651" type="7" route="11" depart="25.828559"/>
<vehicle id="719" type="7" route="9" depart="26.251021"/>
<vehicle id="906" type="2" route="37" depart="27.504117"/>
<vehicle id="181" type="3" route="71" depart="27.526456"/>
<vehicle id="955" type="6" route="8" depart="27.546213"/>
<vehicle id="628" type="3" route="53" depart="28.041985"/>
<vehicle id="666" type="7" route="76" depart="28.109491"/>
<vehicle id="664" type="8" route="37" depart="28.164457"/>
<vehicle id="405" type="5" route="71" depart="28.784449"/>
<vehicle id="252" type="1" route="18" depart="28.814305"/>
<vehicle id="682" type="8" route="28" depart="30.384528"/>
<vehicle id="653" type="4" route="79" depart="30.478840"/>
<vehicle id="216" type="6" route="23" depart="30.869461"/>
<vehicle id="873" type="2" route="47" depart="30.988071"/>
<vehicle id="869" type="9" route="70" depart="31.535507"/>
<vehicle id="453" type="3" route="74" depart="32.254073"/>
<vehicle id="30" type="7" route="12" depart="32.429762"/>
<vehicle id="263" type="7" route="6" depart="32.459709"/>
<vehicle id="804" type="3" route="52" depart="32.662622"/>
<vehicle id="920" type="2" route="28" depart="32.680553"/>
<vehicle id="250" type="9" route="1" depart="32.791890"/>
<vehicle id="379" type="1" route="13" depart="32.904559"/>
<vehicle id="860" type="8" route="36" depart="33.293207"/>
<vehicle id="988" type="1" route="67" depart="34.104101"/>
<vehicle id="224" type="4" route="12" depart="34.667488"/>
<vehicle id="410" type="9" route="76" depart="34.962930"/>
<vehicle id="972" type="9" route="27" depart="35.046018"/>
<vehicle id="701" type="8" route="1" depart="35.171553"/>
<vehicle id="168" type="3" route="6" depart="35.352864"/>
<vehicle id="696" type="4" route="22" depart="35.379644"/>
<vehicle id="33" type="3" route="37" depart="35.931209"/>
<vehicle id="758" type="9" route="4" depart="35.988426"/>
<vehicle id="170" type="2" route="52" depart="36.016221"/>
<vehicle id="31" type="5" route="58" depart="36.464572"/>
<vehicle id="942" type="4" route="47" depart="36.619976"/>
<vehicle id="64" type="5" route="52" depart="36.951596"/>
<vehicle id="328" type="1" route="14" depart="37.083353"/>
<vehicle id="141" type="8" route="34" depart="37.413651"/>
<vehicle id="606" type="5" route="54" depart="38.133691"/>
<vehicle id="498" type="3" route="62" depart="38.437716"/>
<vehicle id="915" type="7" route="4" depart="38.814257"/>
<vehicle id="950" type="3" route="61" depart="38.893200"/>
<vehicle id="222" type="3" route="31" depart="39.085241"/>
<vehicle id="815" type="7" route="71" depart="39.947956"/>
<vehicle id="462" type="1" route="55" depart="40.060077"/>
<vehicle id="678" type="8" route="2" depart="40.157786"/>
<vehicle id="374" type="8" route="18" depart="40.654245"/>
<vehicle id="661" type="6" route="56" depart="40.739173"/>
<vehicle id="522" type="5" route="58" depart="40.741771"/>
<vehicle id="71" type="6" route="57" depart="41.048409"/>
<vehicle id="528" type="7" route="10" depart="41.099378"/>
<vehicle id="934" type="1" route="26" depart="41.660139"/>
<vehicle id="687" type="6" route="60" depart="41.757971"/>
<vehicle id="778" type="8" route="39" depart="41.783431"/>
<vehicle id="768" type="1" route="19" depart="42.302816"/>
<vehicle id="226" type="8" route="40" depart="42.305906"/>
<vehicle id="23" type="1" route="57" depart="42.384445"/>
<vehicle id="741" type="8" route="4" depart="42.547359"/>
<vehicle id="63" type="8" route="36" depart="42.734467"/>
<vehicle id="889" type="5" route="55" depart="43.050126"/>
<vehicle id="313" type="3" route="2" depart="43.645496"/>
<vehicle id="824" type="5" route="42" depart="44.175396"/>
<vehicle id="912" type="2" route="18" depart="45.123905"/>
<vehicle id="382" type="7" route="63" depart="45.297885"/>
<vehicle id="787" type="9" route="16" depart="45.796235"/>
<vehicle id="642" type="9" route="32" depart="45.920051"/>
<vehicle id="399" type="1" route="66" depart="46.718736"/>
<vehicle id="605" type="4" route="36" depart="46.826641"/>
<vehicle id="536" type="6" route="10" depart="47.365571"/>
<vehicle id="833" type="9" route="43" depart="47.529853"/>
<vehicle id="446" type="3" route="32" depart="47.588056"/>
<vehicle id="803" type="7" route="76" depart="47.776321"/>
<vehicle id="233" type="7" route="8" depart="48.197918"/>
<vehicle id="176" type="4" route="67" depart="48.350100"/>
<vehicle id="449" type="7" route="11" depart="48.553475"/>
<vehicle id="932" type="2" route="9" depart="48.928453"/>
<vehicle id="788" type="7" route="5" depart="49.140540"/>
<vehicle id="878" type="7" route="60" depart="49.293734"/>
<vehicle id="504" type="8" route="39" depart="49.504580"/>
<vehicle id="488" type="5" route="17" depart="49.887550"/>
<vehicle id="858" type="7" route="72" depart="50.192386"/>
<vehicle id="662" type="5" route="55" depart="51.151493"/>
<vehicle id="590" type="5" route="62" depart="51.586217"/>
<vehicle id="941" type="6" route="7" depart="51.612322"/>
<vehicle id="784" type="5" route="71" depart="52.178858"/>
<vehicle id="101" type="5" route="2" depart="52.317616"/>
<vehicle id="457" type="9" route="35" depart="52.494651"/>
<vehicle id="304" type="4" route="31" depart="52.503745"/>
<vehicle id="543" type="8" route="4" depart="53.372221"/>
<vehicle id="743" type="7" route="70" depart="53.623307"/>
<vehicle id="797" type="9" route="47" depart="53.629093"/>
<vehicle id="636" type="1" route="12" depart="53.717915"/>
<vehicle id="442" type="1" route="43" depart="53.848807"/>
<vehicle id="679" type="2" route="47" depart="54.408821"/>
<vehicle id="954" type="4" route="54" depart="54.985194"/>
<vehicle id="486" type="3" route="19" depart="54.989696"/>
<vehicle id="19" type="5" route="38" depart="55.125755"/>
<vehicle id="683" type="2" route="74" depart="55.494107"/>
<vehicle id="902" type="9" route="9" depart="55.639769"/>
<vehicle id="331" type="1" route="21" depart="55.898770"/>
<vehicle id="57" type="1" route="51" depart="56.493854"/>
<vehicle id="260" type="3" route="1" depart="56.680114"/>
<vehicle id="249" type="7" route="56" depart="57.865683"/>
<vehicle id="712" type="7" route="26" depart="58.307771"/>
<vehicle id="321" type="8" route="6" depart="58.319816"/>
<vehicle id="892" type="8" route="11" depart="58.791187"/>
<vehicle id="205" type="5" route="11" depart="59.618096"/>
<vehicle id="190" type="8" route="49" depart="59.703679"/>
<vehicle id="375" type="6" route="26" depart="60.249728"/>
<vehicle id="138" type="5" route="75" depart="60.262131"/>
<vehicle id="37" type="8" route="53" depart="61.384419"/>
<vehicle id="789" type="8" route="37" depart="61.632474"/>
<vehicle id="840" type="2" route="63" depart="61.825365"/>
<vehicle id="117" type="7" route="15" depart="62.566247"/>
<vehicle id="315" type="6" route="52" depart="62.833981"/>
<vehicle id="777" type="7" route="74" depart="63.319539"/>
<vehicle id="773" type="9" route="38" depart="63.476574"/>
<vehicle id="732" type="7" route="52" depart="63.582590"/>
<vehicle id="116" type="9" route="24" depart="63.873323"/>
<vehicle id="716" type="9" route="49" depart="64.239181"/>
<vehicle id="607" type="1" route="34" depart="64.433878"/>
<vehicle id="191" type="5" route="36" depart="64.492266"/>
<vehicle id="301" type="8" route="23" depart="64.760122"/>
<vehicle id="561" type="6" route="39" depart="64.766603"/>
<vehicle id="929" type="4" route="76" depart="65.105474"/>
<vehicle id="219" type="8" route="65" depart="65.478295"/>
<vehicle id="354" type="4" route="68" depart="65.666584"/>
<vehicle id="657" type="5" route="29" depart="66.884772"/>
<vehicle id="356" type="3" route="50" depart="67.604199"/>
<vehicle id="937" type="3" route="68" depart="67.962595"/>
<vehicle id="411" type="7" route="43" depart="68.205749"/>
<vehicle id="733" type="1" route="31" depart="68.761138"/>
<vehicle id="137" type="1" route="71" depart="69.304460"/>
<vehicle id="598" type="9" route="26" depart="69.316430"/>
<vehicle id="736" type="7" route="12" depart="69.513379"/>
<vehicle id="24" type="2" route="9" depart="71.512798"/>
<vehicle id="314" type="8" route="77" depart="71.624920"/>
<vehicle id="282" type="9" route="40" depart="71.879954"/>
<vehicle id="458" type="1" route="65" depart="71.886677"/>
<vehicle id="992" type="4" route="43" depart="72.027715"/>
<vehicle id="93" type="9" route="50" depart="72.320070"/>
<vehicle id="256" type="6" route="35" depart="72.614607"/>
<vehicle id="763" type="7" route="55" depart="74.217679"/>
<vehicle id="195" type="4" route="4" depart="74.438667"/>
<vehicle id="283" type="7" route="69" depart="74.440308"/>
<vehicle id="67" type="3" route="41" depart="74.466450"/>
<vehicle id="27" type="1" route="40" depart="74.769834"/>
<vehicle id="577" type="3" route="43" depart="74.974489"/>
<vehicle id="404" type="1" route="74" depart="75.145714"/>
<vehicle id="463" type="5" route="2" depart="75.243435"/>
<vehicle id="206" type="1" route="51" depart="76.146157"/>
<vehicle id="127" type="1" route="18" depart="76.807372"/>
<vehicle id="421" type="6" route="45" depart="77.014129"/>
<vehicle id="930" type="4" route="30" depart="77.138640"/>
<vehicle id="247" type="7" route="13" depart="77.204931"/>
<vehicle id="585" type="5" route="76" depart="77.810357"/>
<vehicle id="128" type="3" route="29" depart="78.640303"/>
<vehicle id="770" type="7" route="43" depart="78.939408"/>
<vehicle id="702" type="1" route="36" depart="78.989877"/>
<vehicle id="445" type="6" route="40" depart="79.950826"/>
<vehicle id="60" type="9" route="4" depart="80.174348"/>
<vehicle id="186" type="7" route="29" depart="80.390393"/>
<vehicle id="821" type="2" route="59" depart="81.157401"/>
<vehicle id="439" type="8" route="69" depart="81.618362"/>
<vehicle id="302" type="2" route="46" depart="82.284030"/>
<vehicle id="230" type="1" route="42" depart="82.615052"/>
<vehicle id="500" type="3" route="45" depart="83.128086"/>
<vehicle id="359" type="7" route="58" depart="83.811779"/>
<vehicle id="61" type="6" route="32" depart="84.600000"/>
<vehicle id="303" type="1" route="22" depart="84.889862"/>
<vehicle id="479" type="4" route="50" depart="85.033716"/>
<vehicle id="584" type="4" route="40" depart="85.551209"/>
<vehicle id="539" type="1" route="70" depart="85.636207"/>
<vehicle id="394" type="8" route="62" depart="85.963161"/>
<vehicle id="59" type="1" route="39" depart="86.721054"/>
<vehicle id="541" type="1" route="48" depart="88.096742"/>
<vehicle id="885" type="5" route="55" depart="88.110094"/>
<vehicle id="54" type="1" route="53" depart="89.487718"/>
<vehicle id="526" type="2" route="36" depart="90.029626"/>
<vehicle id="103" type="2" route="23" depart="90.201963"/>
<vehicle id="537" type="2" route="50" depart="91.119951"/>
<vehicle id="372" type="9" route="42" depart="91.192587"/>
<vehicle id="422" type="7" route="74" depart="91.472086"/>
<vehicle id="15" type="1" route="70" depart="92.084103"/>
<vehicle id="213" type="6" route="5" depart="92.973473"/>
<vehicle id="297" type="3" route="49" depart="93.492277"/>
<vehicle id="342" type="4" route="29" depart="93.530536"/>
<vehicle id="847" type="3" route="10" depart="93.746591"/>
<vehicle id="680" type="5" route="64" depart="94.050932"/>
<vehicle id="882" type="1" route="1" depart="94.563728"/>
<vehicle id="350" type="4" route="30" depart="94.672899"/>
<vehicle id="199" type="8" route="66" depart="94.793785"/>
<vehicle id="391" type="2" route="24" depart="94.805737"/>
<vehicle id="408" type="7" route="66" depart="95.693628"/>
<vehicle id="722" type="9" route="53" depart="95.917133"/>
<vehicle id="978" type="6" route="72" depart="95.982799"/>
<vehicle id="358" type="2" route="9" depart="96.910248"/>
<vehicle id="811" type="1" route="34" depart="97.124177"/>
<vehicle id="21" type="6" route="53" depart="97.191774"/>
<vehicle id="323" type="3" route="51" depart="97.649316"/>
<vehicle id="470" type="1" route="31" depart="97.671736"/>
<vehicle id="600" type="2" route="12" depart="98.509279"/>
<vehicle id="553" type="2" route="55" depart="98.790675"/>
<vehicle id="830" type="9" route="9" depart="99.339385"/>
<vehicle id="771" type="7" route="53" depart="99.513570"/>
<vehicle id="265" type="4" route="77" depart="99.542826"/>
<vehicle id="862" type="2" route="74" depart="100.053781"/>
<vehicle id="579" type="4" route="77" depart="100.965610"/>
<vehicle id="677" type="3" route="11" depart="101.149895"/>
<vehicle id="925" type="2" route="16" depart="101.468445"/>
<vehicle id="603" type="2" route="56" depart="101.976371"/>
<vehicle id="257" type="6" route="64" depart="102.962344"/>
<vehicle id="675" type="8" route="50" depart="103.253636"/>
<vehicle id="829" type="1" route="71" depart="103.814168"/>
<vehicle id="34" type="2" route="4" depart="104.604184"/>
<vehicle id="187" type="7" route="58" depart="104.759698"/>
<vehicle id="322" type="3" route="26" depart="104.888287"/>
<vehicle id="73" type="8" route="77" depart="105.114083"/>
<vehicle id="552" type="4" route="44" depart="105.419777"/>
<vehicle id="832" type="5" route="50" depart="105.540999"/>
<vehicle id="268" type="1" route="6" depart="105.930657"/>
<vehicle id="104" type="8" route="55" depart="106.250604"/>
<vehicle id="26" type="2" route="56" depart="106.326432"/>
<vehicle id="7" type="2" route="66" depart="107.352811"/>
<vehicle id="545" type="7" route="67" depart="107.438957"/>
<vehicle id="91" type="7" route="60" depart="107.608729"/>
<vehicle id="550" type="9" route="8" depart="107.746013"/>
<vehicle id="20" type="7" route="50" depart="108.401924"/>
<vehicle id="152" type="1" route="63" depart="108.486256"/>
<vehicle id="688" type="2" route="32" depart="108.492167"/>
<vehicle id="850" type="5" route="13" depart="108.561517"/>
<vehicle id="425" type="5" route="79" depart="108.662995"/>
<vehicle id="409" type="1" route="6" depart="109.405638"/>
<vehicle id="839" type="8" route="36" depart="109.469642"/>
<vehicle id="639" type="6" route="73" depart="109.638048"/>
<vehicle id="161" type="5" route="75" depart="109.688815"/>
<vehicle id="441" type="7" route="31" depart="109.722021"/>
<vehicle id="172" type="5" route="49" depart="110.043176"/>
<vehicle id="738" type="1" route="43" depart="110.783117"/>
<vehicle id="332" type="6" route="70" depart="111.373435"/>
<vehicle id="340" type="5" route="51" depart="111.478078"/>
<vehicle id="935" type="3" route="48" depart="112.322488"/>
<vehicle id="370" type="5" route="54" depart="112.359372"/>
<vehicle id="597" type="3" route="46" depart="112.371443"/>
<vehicle id="609" type="7" route="49" depart="112.478634"/>
<vehicle id="667" type="6" route="64" depart="112.499900"/>
<vehicle id="418" type="4" route="28" depart="113.455799"/>
<vehicle id="238" type="6" route="55" depart="113.724617"/>
<vehicle id="558" type="3" route="49" depart="113.935881"/>
<vehicle id="638" type="2" route="54" depart="113.975178"/>
<vehicle id="171" type="6" route="72" depart="114.402937"/>
<vehicle id="124" type="4" route="62" depart="114.429242"/>
<vehicle id="602" type="2" route="28" depart="114.654568"/>
<vehicle id="891" type="2" route="5" depart="115.085200"/>
<vehicle id="852" type="2" route="37" depart="115.278455"/>
<vehicle id="969" type="4" route="78" depart="115.373802"/>
<vehicle id="397" type="5" route="49" depart="116.136014"/>
<vehicle id="121" type="2" route="13" depart="116.146811"/>
<vehicle id="568" type="3" route="41" depart="116.612582"/>
<vehicle id="509" type="8" route="39" depart="116.962426"/>
<vehicle id="335" type="6" route="68" depart="117.072474"/>
<vehicle id="781" type="3" route="62" depart="117.407601"/>
<vehicle id="487" type="9" route="72" depart="118.542506"/>
<vehicle id="362" type="5" route="63" depart="118.889513"/>
<vehicle id="169" type="7" route="39" depart="119.106335"/>
<vehicle id="810" type="1" route="71" depart="119.846210"/>
<vehicle id="477" type="3" route="42" depart="120.085068"/>
<vehicle id="565" type="9" route="33" depart="120.165212"/>
<vehicle id="775" type="3" route="35" depart="120.346067"/>
<vehicle id="311" type="6" route="36" depart="120.476354"/>
<vehicle id="574" type="9" route="43" depart="120.639476"/>
<vehicle id="755" type="7" route="47" depart="120.781342"/>
<vehicle id="571" type="2" route="27" depart="121.657268"/>
<vehicle id="901" type="4" route="39" depart="122.512713"/>
<vehicle id="625" type="9" route="31" depart="122.657097"/>
<vehicle id="72" type="7" route="18" depart="122.888561"/>
<vehicle id="569" type="1" route="55" depart="122.890171"/>
<vehicle id="360" type="2" route="39" depart="123.088627"/>
<vehicle id="162" type="7" route="72" depart="123.786594"/>
<vehicle id="5" type="3" route="55" depart="123.965919"/>
<vehicle id="244" type="3" route="25" depart="123.968270"/>
<vehicle id="686" type="2" route="59" depart="124.227259"/>
<vehicle id="823" type="3" route="6" depart="124.281569"/>
<vehicle id="94" type="6" route="23" depart="124.305689"/>
<vehicle id="478" type="4" route="13" depart="124.840765"/>
<vehicle id="388" type="2" route="15" depart="125.159284"/>
<vehicle id="767" type="6" route="62" depart="125.227284"/>
<vehicle id="454" type="7" route="34" depart="125.390828"/>
<vehicle id="973" type="4" route="29" depart="126.456934"/>
<vehicle id="868" type="4" route="23" depart="126.487812"/>
<vehicle id="97" type="3" route="10" depart="126.805609"/>
<vehicle id="842" type="7" route="4" depart="127.123522"/>
<vehicle id="261" type="9" route="62" depart="127.125959"/>
<vehicle id="559" type="5" route="79" depart="127.387204"/>
<vehicle id="414" type="1" route="51" depart="128.866812"/>
<vehicle id="385" type="2" route="55" depart="128.940299"/>
<vehicle id="46" type="2" route="31" depart="129.095609"/>
<vehicle id="193" type="7" route="39" depart="129.166394"/>
<vehicle id="728" type="6" route="74" depart="129.210598"/>
<vehicle id="10" type="4" route="72" depart="129.330319"/>
<vehicle id="501" type="3" route="55" depart="129.334080"/>
<vehicle id="866" type="9" route="72" depart="129.983353"/>
<vehicle id="769" type="5" route="8" depart="130.284470"/>
<vehicle id="324" type="5" route="69" depart="130.739342"/>
<vehicle id="983" type="4" route="49" depart="130.800350"/>
<vehicle id="68" type="7" route="76" depart="130.803292"/>
<vehicle id="173" type="6" route="45" depart="131.217637"/>
<vehicle id="816" type="4" route="49" depart="131.605612"/>
<vehicle id="430" type="4" route="11" depart="132.149841"/>
<vehicle id="407" type="9" route="33" depart="132.864714"/>
<vehicle id="867" type="2" route="68" depart="133.066788"/>
<vehicle id="229" type="6" route="42" depart="133.335882"/>
<vehicle id="808" type="4" route="63" depart="133.351366"/>
<vehicle id="378" type="5" route="48" depart="133.703519"/>
<vehicle id="419" type="9" route="26" depart="133.819024"/>
<vehicle id="300" type="2" route="56" depart="134.031466"/>
<vehicle id="849" type="3" route="28" depart="134.249377"/>
<vehicle id="2" type="1" route="16" depart="134.316506"/>
<vehicle id="158" type="8" route="58" depart="134.326985"/>
<vehicle id="503" type="6" route="57" depart="134.625384"/>
<vehicle id="18" type="7" route="33" depart="136.891355"/>
<vehicle id="511" type="1" route="59" depart="136.934701"/>
<vehicle id="531" type="9" route="30" depart="137.018523"/>
<vehicle id="231" type="8" route="63" depart="137.245139"/>
<vehicle id="647" type="3" route="31" depart="137.363416"/>
<vehicle id="484" type="6" route="7" depart="137.594564"/>
<vehicle id="713" type="1" route="62" depart="137.807641"/>
<vehicle id="1" type="4" route="77" depart="137.993911"/>
<vehicle id="960" type="4" route="73" depart="138.106756"/>
<vehicle id="87" type="8" route="40" depart="138.478550"/>
<vehicle id="55" type="4" route="54" depart="138.555582"/>
<vehicle id="785" type="9" route="36" depart="139.438909"/>
<vehicle id="147" type="3" route="21" depart="139.691737"/>
<vehicle id="581" type="8" route="46" depart="140.243859"/>
<vehicle id="155" type="5" route="11" depart="140.757324"/>
<vehicle id="967" type="8" route="41" depart="140.898535"/>
<vehicle id="616" type="6" route="73" depart="141.147691"/>
<vehicle id="77" type="2" route="74" depart="141.442736"/>
<vehicle id="293" type="5" route="40" depart="141.738092"/>
<vehicle id="646" type="3" route="56" depart="141.936597"/>
<vehicle id="188" type="5" route="41" depart="142.842657"/>
<vehicle id="423" type="9" route="36" depart="142.952602"/>
<vehicle id="518" type="1" route="24" depart="143.294361"/>
<vehicle id="623" type="8" route="43" depart="144.293931"/>
<vehicle id="416" type="2" route="15" depart="144.560583"/>
<vehicle id="859" type="5" route="25" depart="144.586772"/>
<vehicle id="510" type="5" route="20" depart="145.752037"/>
<vehicle id="183" type="1" route="46" depart="145.848408"/>
<vehicle id="267" type="6" route="21" depart="146.568465"/>
<vehicle id="235" type="3" route="70" depart="147.112814"/>
<vehicle id="876" type="7" route="7" depart="147.405830"/>
<vehicle id="540" type="6" route="38" depart="147.654492"/>
<vehicle id="659" type="3" route="40" depart="147.901613"/>
<vehicle id="764" type="6" route="42" depart="148.331277"/>
<vehicle id="90" type="5" route="11" depart="148.588370"/>
<vehicle id="506" type="1" route="22" depart="148.695848"/>
<vehicle id="325" type="6" route="77" depart="149.036062"/>
<vehicle id="756" type="2" route="12" depart="149.455557"/>
<vehicle id="413" type="2" route="60" depart="149.466456"/>
<vehicle id="44" type="9" route="13" depart="149.769978"/>
<vehicle id="438" type="4" route="65" depart="149.947817"/>
<vehicle id="546" type="9" route="4" depart="150.104493"/>
<vehicle id="884" type="6" route="71" depart="150.176438"/>
<vehicle id="534" type="2" route="57" depart="151.049409"/>