<additional>
	<e1Detector file="e1output.xml" freq="60" friendlyPos="x" id="e1det_1i_0" lane="1i_0" length="50" pos="445.15"/>
	<e1Detector file="e1output.xml" freq="60" friendlyPos="x" id="e1det_2i_0" lane="2i_0" length="50" pos="445.15"/>
	<e1Detector file="e1output.xml" freq="60" friendlyPos="x" id="e1det_3i_0" lane="3i_0" length="50" pos="445.15"/>
	<e1Detector file="e1output.xml" freq="60" friendlyPos="x" id="e1det_4i_0" lane="4i_0" length="50" pos="445.15"/>
</additional>
