<?xml version="1.0" encoding="UTF-8"?>

<!-- generated on Mon Nov 11 15:23:36 2013 by SUMO duarouter Version 0.17.1
<?xml version="1.0" encoding="UTF-8"?>

<configuration xmlns:xsi="http://www.w3.org/2001/XMLSchema-instance" xsi:noNamespaceSchemaLocation="http://sumo.sf.net/xsd/duarouterConfiguration.xsd">

    <input>
        <net-file value="test.net.xml"/>
        <trip-files value="test.flow.xml"/>
    </input>

    <output>
        <output-file value="test.rou.xml"/>
    </output>

</configuration>
-->

<routes xmlns:xsi="http://www.w3.org/2001/XMLSchema-instance" xsi:noNamespaceSchemaLocation="http://sumo.sf.net/xsd/routes_file.xsd">
    <vehicle id="0.0" depart="0.00">
        <route edges="left0to0/0 0/0to0/1 0/1to1/1 1/1toright1 right1to1/1"/>
    </vehicle>
    <vehicle id="0.1" depart="12.00">
        <route edges="left0to0/0 0/0to0/1 0/1to1/1 1/1toright1 right1to1/1"/>
    </vehicle>
    <vehicle id="0.2" depart="24.00">
        <route edges="left0to0/0 0/0to0/1 0/1to1/1 1/1toright1 right1to1/1"/>
    </vehicle>
    <vehicle id="0.3" depart="36.00">
        <route edges="left0to0/0 0/0to0/1 0/1to1/1 1/1toright1 right1to1/1"/>
    </vehicle>
    <vehicle id="0.4" depart="48.00">
        <route edges="left0to0/0 0/0to0/1 0/1to1/1 1/1toright1 right1to1/1"/>
    </vehicle>
    <vehicle id="0.5" depart="60.00">
        <route edges="left0to0/0 0/0to0/1 0/1to1/1 1/1toright1 right1to1/1"/>
    </vehicle>
    <vehicle id="0.6" depart="72.00">
        <route edges="left0to0/0 0/0to0/1 0/1to1/1 1/1toright1 right1to1/1"/>
    </vehicle>
    <vehicle id="0.7" depart="84.00">
        <route edges="left0to0/0 0/0to0/1 0/1to1/1 1/1toright1 right1to1/1"/>
    </vehicle>
    <vehicle id="0.8" depart="96.00">
        <route edges="left0to0/0 0/0to0/1 0/1to1/1 1/1toright1 right1to1/1"/>
    </vehicle>
    <vehicle id="0.9" depart="108.00">
        <route edges="left0to0/0 0/0to0/1 0/1to1/1 1/1toright1 right1to1/1"/>
    </vehicle>
    <vehicle id="0.10" depart="120.00">
        <route edges="left0to0/0 0/0to0/1 0/1to1/1 1/1toright1 right1to1/1"/>
    </vehicle>
    <vehicle id="0.11" depart="132.00">
        <route edges="left0to0/0 0/0to0/1 0/1to1/1 1/1toright1 right1to1/1"/>
    </vehicle>
    <vehicle id="0.12" depart="144.00">
        <route edges="left0to0/0 0/0to0/1 0/1to1/1 1/1toright1 right1to1/1"/>
    </vehicle>
    <vehicle id="0.13" depart="156.00">
        <route edges="left0to0/0 0/0to0/1 0/1to1/1 1/1toright1 right1to1/1"/>
    </vehicle>
    <vehicle id="0.14" depart="168.00">
        <route edges="left0to0/0 0/0to0/1 0/1to1/1 1/1toright1 right1to1/1"/>
    </vehicle>
    <vehicle id="0.15" depart="180.00">
        <route edges="left0to0/0 0/0to0/1 0/1to1/1 1/1toright1 right1to1/1"/>
    </vehicle>
    <vehicle id="0.16" depart="192.00">
        <route edges="left0to0/0 0/0to0/1 0/1to1/1 1/1toright1 right1to1/1"/>
    </vehicle>
    <vehicle id="0.17" depart="204.00">
        <route edges="left0to0/0 0/0to0/1 0/1to1/1 1/1toright1 right1to1/1"/>
    </vehicle>
    <vehicle id="0.18" depart="216.00">
        <route edges="left0to0/0 0/0to0/1 0/1to1/1 1/1toright1 right1to1/1"/>
    </vehicle>
    <vehicle id="0.19" depart="228.00">
        <route edges="left0to0/0 0/0to0/1 0/1to1/1 1/1toright1 right1to1/1"/>
    </vehicle>
    <vehicle id="0.20" depart="240.00">
        <route edges="left0to0/0 0/0to0/1 0/1to1/1 1/1toright1 right1to1/1"/>
    </vehicle>
    <vehicle id="0.21" depart="252.00">
        <route edges="left0to0/0 0/0to0/1 0/1to1/1 1/1toright1 right1to1/1"/>
    </vehicle>
    <vehicle id="0.22" depart="264.00">
        <route edges="left0to0/0 0/0to0/1 0/1to1/1 1/1toright1 right1to1/1"/>
    </vehicle>
    <vehicle id="0.23" depart="276.00">
        <route edges="left0to0/0 0/0to0/1 0/1to1/1 1/1toright1 right1to1/1"/>
    </vehicle>
    <vehicle id="0.24" depart="288.00">
        <route edges="left0to0/0 0/0to0/1 0/1to1/1 1/1toright1 right1to1/1"/>
    </vehicle>
    <vehicle id="0.25" depart="300.00">
        <route edges="left0to0/0 0/0to0/1 0/1to1/1 1/1toright1 right1to1/1"/>
    </vehicle>
    <vehicle id="0.26" depart="312.00">
        <route edges="left0to0/0 0/0to0/1 0/1to1/1 1/1toright1 right1to1/1"/>
    </vehicle>
    <vehicle id="0.27" depart="324.00">
        <route edges="left0to0/0 0/0to0/1 0/1to1/1 1/1toright1 right1to1/1"/>
    </vehicle>
    <vehicle id="0.28" depart="336.00">
        <route edges="left0to0/0 0/0to0/1 0/1to1/1 1/1toright1 right1to1/1"/>
    </vehicle>
    <vehicle id="0.29" depart="348.00">
        <route edges="left0to0/0 0/0to0/1 0/1to1/1 1/1toright1 right1to1/1"/>
    </vehicle>
    <vehicle id="0.30" depart="360.00">
        <route edges="left0to0/0 0/0to0/1 0/1to1/1 1/1toright1 right1to1/1"/>
    </vehicle>
    <vehicle id="0.31" depart="372.00">
        <route edges="left0to0/0 0/0to0/1 0/1to1/1 1/1toright1 right1to1/1"/>
    </vehicle>
    <vehicle id="0.32" depart="384.00">
        <route edges="left0to0/0 0/0to0/1 0/1to1/1 1/1toright1 right1to1/1"/>
    </vehicle>
    <vehicle id="0.33" depart="396.00">
        <route edges="left0to0/0 0/0to0/1 0/1to1/1 1/1toright1 right1to1/1"/>
    </vehicle>
    <vehicle id="0.34" depart="408.00">
        <route edges="left0to0/0 0/0to0/1 0/1to1/1 1/1toright1 right1to1/1"/>
    </vehicle>
    <vehicle id="0.35" depart="420.00">
        <route edges="left0to0/0 0/0to0/1 0/1to1/1 1/1toright1 right1to1/1"/>
    </vehicle>
    <vehicle id="0.36" depart="432.00">
        <route edges="left0to0/0 0/0to0/1 0/1to1/1 1/1toright1 right1to1/1"/>
    </vehicle>
    <vehicle id="0.37" depart="444.00">
        <route edges="left0to0/0 0/0to0/1 0/1to1/1 1/1toright1 right1to1/1"/>
    </vehicle>
    <vehicle id="0.38" depart="456.00">
        <route edges="left0to0/0 0/0to0/1 0/1to1/1 1/1toright1 right1to1/1"/>
    </vehicle>
    <vehicle id="0.39" depart="468.00">
        <route edges="left0to0/0 0/0to0/1 0/1to1/1 1/1toright1 right1to1/1"/>
    </vehicle>
    <vehicle id="0.40" depart="480.00">
        <route edges="left0to0/0 0/0to0/1 0/1to1/1 1/1toright1 right1to1/1"/>
    </vehicle>
    <vehicle id="0.41" depart="492.00">
        <route edges="left0to0/0 0/0to0/1 0/1to1/1 1/1toright1 right1to1/1"/>
    </vehicle>
    <vehicle id="0.42" depart="504.00">
        <route edges="left0to0/0 0/0to0/1 0/1to1/1 1/1toright1 right1to1/1"/>
    </vehicle>
    <vehicle id="0.43" depart="516.00">
        <route edges="left0to0/0 0/0to0/1 0/1to1/1 1/1toright1 right1to1/1"/>
    </vehicle>
    <vehicle id="0.44" depart="528.00">
        <route edges="left0to0/0 0/0to0/1 0/1to1/1 1/1toright1 right1to1/1"/>
    </vehicle>
    <vehicle id="0.45" depart="540.00">
        <route edges="left0to0/0 0/0to0/1 0/1to1/1 1/1toright1 right1to1/1"/>
    </vehicle>
    <vehicle id="0.46" depart="552.00">
        <route edges="left0to0/0 0/0to0/1 0/1to1/1 1/1toright1 right1to1/1"/>
    </vehicle>
    <vehicle id="0.47" depart="564.00">
        <route edges="left0to0/0 0/0to0/1 0/1to1/1 1/1toright1 right1to1/1"/>
    </vehicle>
    <vehicle id="0.48" depart="576.00">
        <route edges="left0to0/0 0/0to0/1 0/1to1/1 1/1toright1 right1to1/1"/>
    </vehicle>
    <vehicle id="0.49" depart="588.00">
        <route edges="left0to0/0 0/0to0/1 0/1to1/1 1/1toright1 right1to1/1"/>
    </vehicle>
    <vehicle id="0.50" depart="600.00">
        <route edges="left0to0/0 0/0to0/1 0/1to1/1 1/1toright1 right1to1/1"/>
    </vehicle>
    <vehicle id="0.51" depart="612.00">
        <route edges="left0to0/0 0/0to0/1 0/1to1/1 1/1toright1 right1to1/1"/>
    </vehicle>
    <vehicle id="0.52" depart="624.00">
        <route edges="left0to0/0 0/0to0/1 0/1to1/1 1/1toright1 right1to1/1"/>
    </vehicle>
    <vehicle id="0.53" depart="636.00">
        <route edges="left0to0/0 0/0to0/1 0/1to1/1 1/1toright1 right1to1/1"/>
    </vehicle>
    <vehicle id="0.54" depart="648.00">
        <route edges="left0to0/0 0/0to0/1 0/1to1/1 1/1toright1 right1to1/1"/>
    </vehicle>
    <vehicle id="0.55" depart="660.00">
        <route edges="left0to0/0 0/0to0/1 0/1to1/1 1/1toright1 right1to1/1"/>
    </vehicle>
    <vehicle id="0.56" depart="672.00">
        <route edges="left0to0/0 0/0to0/1 0/1to1/1 1/1toright1 right1to1/1"/>
    </vehicle>
    <vehicle id="0.57" depart="684.00">
        <route edges="left0to0/0 0/0to0/1 0/1to1/1 1/1toright1 right1to1/1"/>
    </vehicle>
    <vehicle id="0.58" depart="696.00">
        <route edges="left0to0/0 0/0to0/1 0/1to1/1 1/1toright1 right1to1/1"/>
    </vehicle>
    <vehicle id="0.59" depart="708.00">
        <route edges="left0to0/0 0/0to0/1 0/1to1/1 1/1toright1 right1to1/1"/>
    </vehicle>
    <vehicle id="0.60" depart="720.00">
        <route edges="left0to0/0 0/0to0/1 0/1to1/1 1/1toright1 right1to1/1"/>
    </vehicle>
    <vehicle id="0.61" depart="732.00">
        <route edges="left0to0/0 0/0to0/1 0/1to1/1 1/1toright1 right1to1/1"/>
    </vehicle>
    <vehicle id="0.62" depart="744.00">
        <route edges="left0to0/0 0/0to0/1 0/1to1/1 1/1toright1 right1to1/1"/>
    </vehicle>
    <vehicle id="0.63" depart="756.00">
        <route edges="left0to0/0 0/0to0/1 0/1to1/1 1/1toright1 right1to1/1"/>
    </vehicle>
    <vehicle id="0.64" depart="768.00">
        <route edges="left0to0/0 0/0to0/1 0/1to1/1 1/1toright1 right1to1/1"/>
    </vehicle>
    <vehicle id="0.65" depart="780.00">
        <route edges="left0to0/0 0/0to0/1 0/1to1/1 1/1toright1 right1to1/1"/>
    </vehicle>
    <vehicle id="0.66" depart="792.00">
        <route edges="left0to0/0 0/0to0/1 0/1to1/1 1/1toright1 right1to1/1"/>
    </vehicle>
    <vehicle id="0.67" depart="804.00">
        <route edges="left0to0/0 0/0to0/1 0/1to1/1 1/1toright1 right1to1/1"/>
    </vehicle>
    <vehicle id="0.68" depart="816.00">
        <route edges="left0to0/0 0/0to0/1 0/1to1/1 1/1toright1 right1to1/1"/>
    </vehicle>
    <vehicle id="0.69" depart="828.00">
        <route edges="left0to0/0 0/0to0/1 0/1to1/1 1/1toright1 right1to1/1"/>
    </vehicle>
    <vehicle id="0.70" depart="840.00">
        <route edges="left0to0/0 0/0to0/1 0/1to1/1 1/1toright1 right1to1/1"/>
    </vehicle>
    <vehicle id="0.71" depart="852.00">
        <route edges="left0to0/0 0/0to0/1 0/1to1/1 1/1toright1 right1to1/1"/>
    </vehicle>
    <vehicle id="0.72" depart="864.00">
        <route edges="left0to0/0 0/0to0/1 0/1to1/1 1/1toright1 right1to1/1"/>
    </vehicle>
    <vehicle id="0.73" depart="876.00">
        <route edges="left0to0/0 0/0to0/1 0/1to1/1 1/1toright1 right1to1/1"/>
    </vehicle>
    <vehicle id="0.74" depart="888.00">
        <route edges="left0to0/0 0/0to0/1 0/1to1/1 1/1toright1 right1to1/1"/>
    </vehicle>
    <vehicle id="0.75" depart="900.00">
        <route edges="left0to0/0 0/0to0/1 0/1to1/1 1/1toright1 right1to1/1"/>
    </vehicle>
    <vehicle id="0.76" depart="912.00">
        <route edges="left0to0/0 0/0to0/1 0/1to1/1 1/1toright1 right1to1/1"/>
    </vehicle>
    <vehicle id="0.77" depart="924.00">
        <route edges="left0to0/0 0/0to0/1 0/1to1/1 1/1toright1 right1to1/1"/>
    </vehicle>
    <vehicle id="0.78" depart="936.00">
        <route edges="left0to0/0 0/0to0/1 0/1to1/1 1/1toright1 right1to1/1"/>
    </vehicle>
    <vehicle id="0.79" depart="948.00">
        <route edges="left0to0/0 0/0to0/1 0/1to1/1 1/1toright1 right1to1/1"/>
    </vehicle>
    <vehicle id="0.80" depart="960.00">
        <route edges="left0to0/0 0/0to0/1 0/1to1/1 1/1toright1 right1to1/1"/>
    </vehicle>
    <vehicle id="0.81" depart="972.00">
        <route edges="left0to0/0 0/0to0/1 0/1to1/1 1/1toright1 right1to1/1"/>
    </vehicle>
    <vehicle id="0.82" depart="984.00">
        <route edges="left0to0/0 0/0to0/1 0/1to1/1 1/1toright1 right1to1/1"/>
    </vehicle>
    <vehicle id="0.83" depart="996.00">
        <route edges="left0to0/0 0/0to0/1 0/1to1/1 1/1toright1 right1to1/1"/>
    </vehicle>
    <vehicle id="0.84" depart="1008.00">
        <route edges="left0to0/0 0/0to0/1 0/1to1/1 1/1toright1 right1to1/1"/>
    </vehicle>
    <vehicle id="0.85" depart="1020.00">
        <route edges="left0to0/0 0/0to0/1 0/1to1/1 1/1toright1 right1to1/1"/>
    </vehicle>
    <vehicle id="0.86" depart="1032.00">
        <route edges="left0to0/0 0/0to0/1 0/1to1/1 1/1toright1 right1to1/1"/>
    </vehicle>
    <vehicle id="0.87" depart="1044.00">
        <route edges="left0to0/0 0/0to0/1 0/1to1/1 1/1toright1 right1to1/1"/>
    </vehicle>
    <vehicle id="0.88" depart="1056.00">
        <route edges="left0to0/0 0/0to0/1 0/1to1/1 1/1toright1 right1to1/1"/>
    </vehicle>
    <vehicle id="0.89" depart="1068.00">
        <route edges="left0to0/0 0/0to0/1 0/1to1/1 1/1toright1 right1to1/1"/>
    </vehicle>
    <vehicle id="0.90" depart="1080.00">
        <route edges="left0to0/0 0/0to0/1 0/1to1/1 1/1toright1 right1to1/1"/>
    </vehicle>
    <vehicle id="0.91" depart="1092.00">
        <route edges="left0to0/0 0/0to0/1 0/1to1/1 1/1toright1 right1to1/1"/>
    </vehicle>
    <vehicle id="0.92" depart="1104.00">
        <route edges="left0to0/0 0/0to0/1 0/1to1/1 1/1toright1 right1to1/1"/>
    </vehicle>
    <vehicle id="0.93" depart="1116.00">
        <route edges="left0to0/0 0/0to0/1 0/1to1/1 1/1toright1 right1to1/1"/>
    </vehicle>
    <vehicle id="0.94" depart="1128.00">
        <route edges="left0to0/0 0/0to0/1 0/1to1/1 1/1toright1 right1to1/1"/>
    </vehicle>
    <vehicle id="0.95" depart="1140.00">
        <route edges="left0to0/0 0/0to0/1 0/1to1/1 1/1toright1 right1to1/1"/>
    </vehicle>
    <vehicle id="0.96" depart="1152.00">
        <route edges="left0to0/0 0/0to0/1 0/1to1/1 1/1toright1 right1to1/1"/>
    </vehicle>
    <vehicle id="0.97" depart="1164.00">
        <route edges="left0to0/0 0/0to0/1 0/1to1/1 1/1toright1 right1to1/1"/>
    </vehicle>
    <vehicle id="0.98" depart="1176.00">
        <route edges="left0to0/0 0/0to0/1 0/1to1/1 1/1toright1 right1to1/1"/>
    </vehicle>
    <vehicle id="0.99" depart="1188.00">
        <route edges="left0to0/0 0/0to0/1 0/1to1/1 1/1toright1 right1to1/1"/>
    </vehicle>
    <vehicle id="0.100" depart="1200.00">
        <route edges="left0to0/0 0/0to0/1 0/1to1/1 1/1toright1 right1to1/1"/>
    </vehicle>
    <vehicle id="0.101" depart="1212.00">
        <route edges="left0to0/0 0/0to0/1 0/1to1/1 1/1toright1 right1to1/1"/>
    </vehicle>
    <vehicle id="0.102" depart="1224.00">
        <route edges="left0to0/0 0/0to0/1 0/1to1/1 1/1toright1 right1to1/1"/>
    </vehicle>
    <vehicle id="0.103" depart="1236.00">
        <route edges="left0to0/0 0/0to0/1 0/1to1/1 1/1toright1 right1to1/1"/>
    </vehicle>
    <vehicle id="0.104" depart="1248.00">
        <route edges="left0to0/0 0/0to0/1 0/1to1/1 1/1toright1 right1to1/1"/>
    </vehicle>
    <vehicle id="0.105" depart="1260.00">
        <route edges="left0to0/0 0/0to0/1 0/1to1/1 1/1toright1 right1to1/1"/>
    </vehicle>
    <vehicle id="0.106" depart="1272.00">
        <route edges="left0to0/0 0/0to0/1 0/1to1/1 1/1toright1 right1to1/1"/>
    </vehicle>
    <vehicle id="0.107" depart="1284.00">
        <route edges="left0to0/0 0/0to0/1 0/1to1/1 1/1toright1 right1to1/1"/>
    </vehicle>
    <vehicle id="0.108" depart="1296.00">
        <route edges="left0to0/0 0/0to0/1 0/1to1/1 1/1toright1 right1to1/1"/>
    </vehicle>
    <vehicle id="0.109" depart="1308.00">
        <route edges="left0to0/0 0/0to0/1 0/1to1/1 1/1toright1 right1to1/1"/>
    </vehicle>
    <vehicle id="0.110" depart="1320.00">
        <route edges="left0to0/0 0/0to0/1 0/1to1/1 1/1toright1 right1to1/1"/>
    </vehicle>
    <vehicle id="0.111" depart="1332.00">
        <route edges="left0to0/0 0/0to0/1 0/1to1/1 1/1toright1 right1to1/1"/>
    </vehicle>
    <vehicle id="0.112" depart="1344.00">
        <route edges="left0to0/0 0/0to0/1 0/1to1/1 1/1toright1 right1to1/1"/>
    </vehicle>
    <vehicle id="0.113" depart="1356.00">
        <route edges="left0to0/0 0/0to0/1 0/1to1/1 1/1toright1 right1to1/1"/>
    </vehicle>
    <vehicle id="0.114" depart="1368.00">
        <route edges="left0to0/0 0/0to0/1 0/1to1/1 1/1toright1 right1to1/1"/>
    </vehicle>
    <vehicle id="0.115" depart="1380.00">
        <route edges="left0to0/0 0/0to0/1 0/1to1/1 1/1toright1 right1to1/1"/>
    </vehicle>
    <vehicle id="0.116" depart="1392.00">
        <route edges="left0to0/0 0/0to0/1 0/1to1/1 1/1toright1 right1to1/1"/>
    </vehicle>
    <vehicle id="0.117" depart="1404.00">
        <route edges="left0to0/0 0/0to0/1 0/1to1/1 1/1toright1 right1to1/1"/>
    </vehicle>
    <vehicle id="0.118" depart="1416.00">
        <route edges="left0to0/0 0/0to0/1 0/1to1/1 1/1toright1 right1to1/1"/>
    </vehicle>
    <vehicle id="0.119" depart="1428.00">
        <route edges="left0to0/0 0/0to0/1 0/1to1/1 1/1toright1 right1to1/1"/>
    </vehicle>
    <vehicle id="0.120" depart="1440.00">
        <route edges="left0to0/0 0/0to0/1 0/1to1/1 1/1toright1 right1to1/1"/>
    </vehicle>
    <vehicle id="0.121" depart="1452.00">
        <route edges="left0to0/0 0/0to0/1 0/1to1/1 1/1toright1 right1to1/1"/>
    </vehicle>
    <vehicle id="0.122" depart="1464.00">
        <route edges="left0to0/0 0/0to0/1 0/1to1/1 1/1toright1 right1to1/1"/>
    </vehicle>
    <vehicle id="0.123" depart="1476.00">
        <route edges="left0to0/0 0/0to0/1 0/1to1/1 1/1toright1 right1to1/1"/>
    </vehicle>
    <vehicle id="0.124" depart="1488.00">
        <route edges="left0to0/0 0/0to0/1 0/1to1/1 1/1toright1 right1to1/1"/>
    </vehicle>
    <vehicle id="0.125" depart="1500.00">
        <route edges="left0to0/0 0/0to0/1 0/1to1/1 1/1toright1 right1to1/1"/>
    </vehicle>
    <vehicle id="0.126" depart="1512.00">
        <route edges="left0to0/0 0/0to0/1 0/1to1/1 1/1toright1 right1to1/1"/>
    </vehicle>
    <vehicle id="0.127" depart="1524.00">
        <route edges="left0to0/0 0/0to0/1 0/1to1/1 1/1toright1 right1to1/1"/>
    </vehicle>
    <vehicle id="0.128" depart="1536.00">
        <route edges="left0to0/0 0/0to0/1 0/1to1/1 1/1toright1 right1to1/1"/>
    </vehicle>
    <vehicle id="0.129" depart="1548.00">
        <route edges="left0to0/0 0/0to0/1 0/1to1/1 1/1toright1 right1to1/1"/>
    </vehicle>
    <vehicle id="0.130" depart="1560.00">
        <route edges="left0to0/0 0/0to0/1 0/1to1/1 1/1toright1 right1to1/1"/>
    </vehicle>
    <vehicle id="0.131" depart="1572.00">
        <route edges="left0to0/0 0/0to0/1 0/1to1/1 1/1toright1 right1to1/1"/>
    </vehicle>
    <vehicle id="0.132" depart="1584.00">
        <route edges="left0to0/0 0/0to0/1 0/1to1/1 1/1toright1 right1to1/1"/>
    </vehicle>
    <vehicle id="0.133" depart="1596.00">
        <route edges="left0to0/0 0/0to0/1 0/1to1/1 1/1toright1 right1to1/1"/>
    </vehicle>
    <vehicle id="0.134" depart="1608.00">
        <route edges="left0to0/0 0/0to0/1 0/1to1/1 1/1toright1 right1to1/1"/>
    </vehicle>
    <vehicle id="0.135" depart="1620.00">
        <route edges="left0to0/0 0/0to0/1 0/1to1/1 1/1toright1 right1to1/1"/>
    </vehicle>
    <vehicle id="0.136" depart="1632.00">
        <route edges="left0to0/0 0/0to0/1 0/1to1/1 1/1toright1 right1to1/1"/>
    </vehicle>
    <vehicle id="0.137" depart="1644.00">
        <route edges="left0to0/0 0/0to0/1 0/1to1/1 1/1toright1 right1to1/1"/>
    </vehicle>
    <vehicle id="0.138" depart="1656.00">
        <route edges="left0to0/0 0/0to0/1 0/1to1/1 1/1toright1 right1to1/1"/>
    </vehicle>
    <vehicle id="0.139" depart="1668.00">
        <route edges="left0to0/0 0/0to0/1 0/1to1/1 1/1toright1 right1to1/1"/>
    </vehicle>
    <vehicle id="0.140" depart="1680.00">
        <route edges="left0to0/0 0/0to0/1 0/1to1/1 1/1toright1 right1to1/1"/>
    </vehicle>
    <vehicle id="0.141" depart="1692.00">
        <route edges="left0to0/0 0/0to0/1 0/1to1/1 1/1toright1 right1to1/1"/>
    </vehicle>
    <vehicle id="0.142" depart="1704.00">
        <route edges="left0to0/0 0/0to0/1 0/1to1/1 1/1toright1 right1to1/1"/>
    </vehicle>
    <vehicle id="0.143" depart="1716.00">
        <route edges="left0to0/0 0/0to0/1 0/1to1/1 1/1toright1 right1to1/1"/>
    </vehicle>
    <vehicle id="0.144" depart="1728.00">
        <route edges="left0to0/0 0/0to0/1 0/1to1/1 1/1toright1 right1to1/1"/>
    </vehicle>
    <vehicle id="0.145" depart="1740.00">
        <route edges="left0to0/0 0/0to0/1 0/1to1/1 1/1toright1 right1to1/1"/>
    </vehicle>
    <vehicle id="0.146" depart="1752.00">
        <route edges="left0to0/0 0/0to0/1 0/1to1/1 1/1toright1 right1to1/1"/>
    </vehicle>
    <vehicle id="0.147" depart="1764.00">
        <route edges="left0to0/0 0/0to0/1 0/1to1/1 1/1toright1 right1to1/1"/>
    </vehicle>
    <vehicle id="0.148" depart="1776.00">
        <route edges="left0to0/0 0/0to0/1 0/1to1/1 1/1toright1 right1to1/1"/>
    </vehicle>
    <vehicle id="0.149" depart="1788.00">
        <route edges="left0to0/0 0/0to0/1 0/1to1/1 1/1toright1 right1to1/1"/>
    </vehicle>
    <vehicle id="0.150" depart="1800.00">
        <route edges="left0to0/0 0/0to0/1 0/1to1/1 1/1toright1 right1to1/1"/>
    </vehicle>
    <vehicle id="0.151" depart="1812.00">
        <route edges="left0to0/0 0/0to0/1 0/1to1/1 1/1toright1 right1to1/1"/>
    </vehicle>
    <vehicle id="0.152" depart="1824.00">
        <route edges="left0to0/0 0/0to0/1 0/1to1/1 1/1toright1 right1to1/1"/>
    </vehicle>
    <vehicle id="0.153" depart="1836.00">
        <route edges="left0to0/0 0/0to0/1 0/1to1/1 1/1toright1 right1to1/1"/>
    </vehicle>
    <vehicle id="0.154" depart="1848.00">
        <route edges="left0to0/0 0/0to0/1 0/1to1/1 1/1toright1 right1to1/1"/>
    </vehicle>
    <vehicle id="0.155" depart="1860.00">
        <route edges="left0to0/0 0/0to0/1 0/1to1/1 1/1toright1 right1to1/1"/>
    </vehicle>
    <vehicle id="0.156" depart="1872.00">
        <route edges="left0to0/0 0/0to0/1 0/1to1/1 1/1toright1 right1to1/1"/>
    </vehicle>
    <vehicle id="0.157" depart="1884.00">
        <route edges="left0to0/0 0/0to0/1 0/1to1/1 1/1toright1 right1to1/1"/>
    </vehicle>
    <vehicle id="0.158" depart="1896.00">
        <route edges="left0to0/0 0/0to0/1 0/1to1/1 1/1toright1 right1to1/1"/>
    </vehicle>
    <vehicle id="0.159" depart="1908.00">
        <route edges="left0to0/0 0/0to0/1 0/1to1/1 1/1toright1 right1to1/1"/>
    </vehicle>
    <vehicle id="0.160" depart="1920.00">
        <route edges="left0to0/0 0/0to0/1 0/1to1/1 1/1toright1 right1to1/1"/>
    </vehicle>
    <vehicle id="0.161" depart="1932.00">
        <route edges="left0to0/0 0/0to0/1 0/1to1/1 1/1toright1 right1to1/1"/>
    </vehicle>
    <vehicle id="0.162" depart="1944.00">
        <route edges="left0to0/0 0/0to0/1 0/1to1/1 1/1toright1 right1to1/1"/>
    </vehicle>
    <vehicle id="0.163" depart="1956.00">
        <route edges="left0to0/0 0/0to0/1 0/1to1/1 1/1toright1 right1to1/1"/>
    </vehicle>
    <vehicle id="0.164" depart="1968.00">
        <route edges="left0to0/0 0/0to0/1 0/1to1/1 1/1toright1 right1to1/1"/>
    </vehicle>
    <vehicle id="0.165" depart="1980.00">
        <route edges="left0to0/0 0/0to0/1 0/1to1/1 1/1toright1 right1to1/1"/>
    </vehicle>
    <vehicle id="0.166" depart="1992.00">
        <route edges="left0to0/0 0/0to0/1 0/1to1/1 1/1toright1 right1to1/1"/>
    </vehicle>
    <vehicle id="0.167" depart="2004.00">
        <route edges="left0to0/0 0/0to0/1 0/1to1/1 1/1toright1 right1to1/1"/>
    </vehicle>
    <vehicle id="0.168" depart="2016.00">
        <route edges="left0to0/0 0/0to0/1 0/1to1/1 1/1toright1 right1to1/1"/>
    </vehicle>
    <vehicle id="0.169" depart="2028.00">
        <route edges="left0to0/0 0/0to0/1 0/1to1/1 1/1toright1 right1to1/1"/>
    </vehicle>
    <vehicle id="0.170" depart="2040.00">
        <route edges="left0to0/0 0/0to0/1 0/1to1/1 1/1toright1 right1to1/1"/>
    </vehicle>
    <vehicle id="0.171" depart="2052.00">
        <route edges="left0to0/0 0/0to0/1 0/1to1/1 1/1toright1 right1to1/1"/>
    </vehicle>
    <vehicle id="0.172" depart="2064.00">
        <route edges="left0to0/0 0/0to0/1 0/1to1/1 1/1toright1 right1to1/1"/>
    </vehicle>
    <vehicle id="0.173" depart="2076.00">
        <route edges="left0to0/0 0/0to0/1 0/1to1/1 1/1toright1 right1to1/1"/>
    </vehicle>
    <vehicle id="0.174" depart="2088.00">
        <route edges="left0to0/0 0/0to0/1 0/1to1/1 1/1toright1 right1to1/1"/>
    </vehicle>
    <vehicle id="0.175" depart="2100.00">
        <route edges="left0to0/0 0/0to0/1 0/1to1/1 1/1toright1 right1to1/1"/>
    </vehicle>
    <vehicle id="0.176" depart="2112.00">
        <route edges="left0to0/0 0/0to0/1 0/1to1/1 1/1toright1 right1to1/1"/>
    </vehicle>
    <vehicle id="0.177" depart="2124.00">
        <route edges="left0to0/0 0/0to0/1 0/1to1/1 1/1toright1 right1to1/1"/>
    </vehicle>
    <vehicle id="0.178" depart="2136.00">
        <route edges="left0to0/0 0/0to0/1 0/1to1/1 1/1toright1 right1to1/1"/>
    </vehicle>
    <vehicle id="0.179" depart="2148.00">
        <route edges="left0to0/0 0/0to0/1 0/1to1/1 1/1toright1 right1to1/1"/>
    </vehicle>
    <vehicle id="0.180" depart="2160.00">
        <route edges="left0to0/0 0/0to0/1 0/1to1/1 1/1toright1 right1to1/1"/>
    </vehicle>
    <vehicle id="0.181" depart="2172.00">
        <route edges="left0to0/0 0/0to0/1 0/1to1/1 1/1toright1 right1to1/1"/>
    </vehicle>
    <vehicle id="0.182" depart="2184.00">
        <route edges="left0to0/0 0/0to0/1 0/1to1/1 1/1toright1 right1to1/1"/>
    </vehicle>
    <vehicle id="0.183" depart="2196.00">
        <route edges="left0to0/0 0/0to0/1 0/1to1/1 1/1toright1 right1to1/1"/>
    </vehicle>
    <vehicle id="0.184" depart="2208.00">
        <route edges="left0to0/0 0/0to0/1 0/1to1/1 1/1toright1 right1to1/1"/>
    </vehicle>
    <vehicle id="0.185" depart="2220.00">
        <route edges="left0to0/0 0/0to0/1 0/1to1/1 1/1toright1 right1to1/1"/>
    </vehicle>
    <vehicle id="0.186" depart="2232.00">
        <route edges="left0to0/0 0/0to0/1 0/1to1/1 1/1toright1 right1to1/1"/>
    </vehicle>
    <vehicle id="0.187" depart="2244.00">
        <route edges="left0to0/0 0/0to0/1 0/1to1/1 1/1toright1 right1to1/1"/>
    </vehicle>
    <vehicle id="0.188" depart="2256.00">
        <route edges="left0to0/0 0/0to0/1 0/1to1/1 1/1toright1 right1to1/1"/>
    </vehicle>
    <vehicle id="0.189" depart="2268.00">
        <route edges="left0to0/0 0/0to0/1 0/1to1/1 1/1toright1 right1to1/1"/>
    </vehicle>
    <vehicle id="0.190" depart="2280.00">
        <route edges="left0to0/0 0/0to0/1 0/1to1/1 1/1toright1 right1to1/1"/>
    </vehicle>
    <vehicle id="0.191" depart="2292.00">
        <route edges="left0to0/0 0/0to0/1 0/1to1/1 1/1toright1 right1to1/1"/>
    </vehicle>
    <vehicle id="0.192" depart="2304.00">
        <route edges="left0to0/0 0/0to0/1 0/1to1/1 1/1toright1 right1to1/1"/>
    </vehicle>
    <vehicle id="0.193" depart="2316.00">
        <route edges="left0to0/0 0/0to0/1 0/1to1/1 1/1toright1 right1to1/1"/>
    </vehicle>
    <vehicle id="0.194" depart="2328.00">
        <route edges="left0to0/0 0/0to0/1 0/1to1/1 1/1toright1 right1to1/1"/>
    </vehicle>
    <vehicle id="0.195" depart="2340.00">
        <route edges="left0to0/0 0/0to0/1 0/1to1/1 1/1toright1 right1to1/1"/>
    </vehicle>
    <vehicle id="0.196" depart="2352.00">
        <route edges="left0to0/0 0/0to0/1 0/1to1/1 1/1toright1 right1to1/1"/>
    </vehicle>
    <vehicle id="0.197" depart="2364.00">
        <route edges="left0to0/0 0/0to0/1 0/1to1/1 1/1toright1 right1to1/1"/>
    </vehicle>
    <vehicle id="0.198" depart="2376.00">
        <route edges="left0to0/0 0/0to0/1 0/1to1/1 1/1toright1 right1to1/1"/>
    </vehicle>
    <vehicle id="0.199" depart="2388.00">
        <route edges="left0to0/0 0/0to0/1 0/1to1/1 1/1toright1 right1to1/1"/>
    </vehicle>
    <vehicle id="0.200" depart="2400.00">
        <route edges="left0to0/0 0/0to0/1 0/1to1/1 1/1toright1 right1to1/1"/>
    </vehicle>
    <vehicle id="0.201" depart="2412.00">
        <route edges="left0to0/0 0/0to0/1 0/1to1/1 1/1toright1 right1to1/1"/>
    </vehicle>
    <vehicle id="0.202" depart="2424.00">
        <route edges="left0to0/0 0/0to0/1 0/1to1/1 1/1toright1 right1to1/1"/>
    </vehicle>
    <vehicle id="0.203" depart="2436.00">
        <route edges="left0to0/0 0/0to0/1 0/1to1/1 1/1toright1 right1to1/1"/>
    </vehicle>
    <vehicle id="0.204" depart="2448.00">
        <route edges="left0to0/0 0/0to0/1 0/1to1/1 1/1toright1 right1to1/1"/>
    </vehicle>
    <vehicle id="0.205" depart="2460.00">
        <route edges="left0to0/0 0/0to0/1 0/1to1/1 1/1toright1 right1to1/1"/>
    </vehicle>
    <vehicle id="0.206" depart="2472.00">
        <route edges="left0to0/0 0/0to0/1 0/1to1/1 1/1toright1 right1to1/1"/>
    </vehicle>
    <vehicle id="0.207" depart="2484.00">
        <route edges="left0to0/0 0/0to0/1 0/1to1/1 1/1toright1 right1to1/1"/>
    </vehicle>
    <vehicle id="0.208" depart="2496.00">
        <route edges="left0to0/0 0/0to0/1 0/1to1/1 1/1toright1 right1to1/1"/>
    </vehicle>
    <vehicle id="0.209" depart="2508.00">
        <route edges="left0to0/0 0/0to0/1 0/1to1/1 1/1toright1 right1to1/1"/>
    </vehicle>
    <vehicle id="0.210" depart="2520.00">
        <route edges="left0to0/0 0/0to0/1 0/1to1/1 1/1toright1 right1to1/1"/>
    </vehicle>
    <vehicle id="0.211" depart="2532.00">
        <route edges="left0to0/0 0/0to0/1 0/1to1/1 1/1toright1 right1to1/1"/>
    </vehicle>
    <vehicle id="0.212" depart="2544.00">
        <route edges="left0to0/0 0/0to0/1 0/1to1/1 1/1toright1 right1to1/1"/>
    </vehicle>
    <vehicle id="0.213" depart="2556.00">
        <route edges="left0to0/0 0/0to0/1 0/1to1/1 1/1toright1 right1to1/1"/>
    </vehicle>
    <vehicle id="0.214" depart="2568.00">
        <route edges="left0to0/0 0/0to0/1 0/1to1/1 1/1toright1 right1to1/1"/>
    </vehicle>
    <vehicle id="0.215" depart="2580.00">
        <route edges="left0to0/0 0/0to0/1 0/1to1/1 1/1toright1 right1to1/1"/>
    </vehicle>
    <vehicle id="0.216" depart="2592.00">
        <route edges="left0to0/0 0/0to0/1 0/1to1/1 1/1toright1 right1to1/1"/>
    </vehicle>
    <vehicle id="0.217" depart="2604.00">
        <route edges="left0to0/0 0/0to0/1 0/1to1/1 1/1toright1 right1to1/1"/>
    </vehicle>
    <vehicle id="0.218" depart="2616.00">
        <route edges="left0to0/0 0/0to0/1 0/1to1/1 1/1toright1 right1to1/1"/>