<?xml version="1.0" encoding="UTF-8"?>
<edges xmlns:xsi="http://www.w3.org/2001/XMLSchema-instance" xsi:noNamespaceSchemaLocation="http://sumo.sf.net/xsd/edges_file.xsd">

	<edge id = "1" from = "0" to = "1" priority = "46" numLanes = "1" speed = "15.00"/>
	<edge id = "2" from = "1" to = "0" priority = "46" numLanes = "1" speed = "15.00"/>


	<edge id = "3" from = "1" to = "2" priority = "46" numLanes = "1" speed = "15.00"/>
	<edge id = "4" from = "2" to = "1" priority = "46" numLanes = "1" speed = "15.00"/>
	
	<edge id = "1" from = "2" to = "3" priority = "46" numLanes = "1" speed = "15.00"/>
	<edge id = "2" from = "3" to = "3" priority = "46" numLanes = "1" speed = "15.00"/>
	
	<edge id = "1" from = "3" to = "0" priority = "46" numLanes = "1" speed = "15.00"/>
	<edge id = "2" from = "0" to = "3" priority = "46" numLanes = "1" speed = "15.00"/>

</edges>
