<?xml version="1.0" encoding="UTF-8"?>
<nodes xmlns:xsi="http://www.w3.org/2001/XMLSchema-instance" xsi:noNamespaceSchemaLocation="http://sumo.sf.net/xsd/nodes_file.xsd">

	<node id = "0" x = "-200" y = "200" type = "traffic_light"/>
	<node id = "1" x = "200" y = "200" type = "traffic_light"/>
	<node id = "2" x = "200" y = "-200" type = "traffic_light"/>
	<node id = "3" x = "-200" y = "-200" type = "traffic_light"/>


	<node id = "100" x = "-400" y = "200" type = "priority"/>
	<node id = "101" x = "-200" y = "400" type = "priority"/>
	<node id = "102" x = "200" y = "400" type = "priority"/>
	<node id = "103" x = "400" y = "200" type = "priority"/>
	<node id = "104" x = "400" y = "-200" type = "priority"/>
	<node id = "105" x = "200" y = "-400" type = "priority"/>
	<node id = "106" x = "-200" y = "-400" type = "priorty"/>
	<node id = "107" x = "-400" y = "-200" type = "priority"/>

</nodes>
