<?xml version="1.0" encoding="UTF-8"?>
<edges xmlns:xsi="http://www.w3.org/2001/XMLSchema-instance" xsi:noNamespaceSchemaLocation="http://sumo.sf.net/xsd/edges_file.xsd">

	<edge id = "1" from = "0" to = "1" priority = "46" numLanes = "1" speed = "15.00"/>
	<edge id = "2" from = "1" to = "0" priority = "46" numLanes = "1" speed = "15.00"/>


	<edge id = "3" from = "1" to = "2" priority = "46" numLanes = "1" speed = "15.00"/>
	<edge id = "4" from = "2" to = "1" priority = "46" numLanes = "1" speed = "15.00"/>
	
	<edge id = "5" from = "2" to = "3" priority = "46" numLanes = "1" speed = "15.00"/>
	<edge id = "6" from = "3" to = "2" priority = "46" numLanes = "1" speed = "15.00"/>
	
	<edge id = "7" from = "3" to = "0" priority = "46" numLanes = "1" speed = "15.00"/>
	<edge id = "8" from = "0" to = "3" priority = "46" numLanes = "1" speed = "15.00"/>

	<edge id = "9" from = "0" to = "1" priority = "46" numLanes = "1" speed = "15.00"/>
	<edge id = "10" from = "1" to = "0" priority = "46" numLanes = "1" speed = "15.00"/>


	<edge id = "11" from = "1" to = "2" priority = "46" numLanes = "1" speed = "15.00"/>
	<edge id = "12" from = "2" to = "1" priority = "46" numLanes = "1" speed = "15.00"/>
	
	<edge id = "13" from = "2" to = "3" priority = "46" numLanes = "1" speed = "15.00"/>
	<edge id = "14" from = "3" to = "2" priority = "46" numLanes = "1" speed = "15.00"/>
	
	<edge id = "15" from = "3" to = "0" priority = "46" numLanes = "1" speed = "15.00"/>
	<edge id = "16" from = "0" to = "3" priority = "46" numLanes = "1" speed = "15.00"/>

</edges>
