<routes>
        <vType id="typeWE" accel="0.8" decel="0.45" sigma="0.5" length="5"  minGap="2.5" maxSpeed="1" guiShape="passenger"/>
        <vType id="typeNS" accel="0.8" decel="0.45" sigma="0.5" length="17" minGap="3" maxSpeed="1" guiShape="bus"/>

        <route id="right" edges="1 3 5 7" />
        <route id="left" edges="1 3 5 7" />
        <route id="down" edges="8 6 4 2" />
    <vehicle id="0" type="typeWE" route="left" depart="0" />
    <vehicle id="1" type="typeWE" route="right" depart="3" />
    <vehicle id="2" type="typeWE" route="right" depart="4" />
    <vehicle id="3" type="typeWE" route="left" depart="6" />
    <vehicle id="4" type="typeNS" route="down" depart="7" color="1,0,0"/>
    <vehicle id="5" type="typeNS" route="down" depart="8" color="1,0,0"/>
    <vehicle id="6" type="typeNS" route="down" depart="13" color="1,0,0"/>
    <vehicle id="7" type="typeNS" route="down" depart="14" color="1,0,0"/>
    <vehicle id="8" type="typeNS" route="down" depart="18" color="1,0,0"/>
    <vehicle id="9" type="typeWE" route="left" depart="22" />
    <vehicle id="10" type="typeNS" route="down" depart="29" color="1,0,0"/>
    <vehicle id="11" type="typeWE" route="left" depart="33" />
    <vehicle id="12" type="typeNS" route="down" depart="37" color="1,0,0"/>
    <vehicle id="13" type="typeNS" route="down" depart="39" color="1,0,0"/>
    <vehicle id="14" type="typeWE" route="left" depart="41" />
    <vehicle id="15" type="typeWE" route="right" depart="42" />
    <vehicle id="16" type="typeNS" route="down" depart="43" color="1,0,0"/>
    <vehicle id="17" type="typeNS" route="down" depart="44" color="1,0,0"/>
    <vehicle id="18" type="typeNS" route="down" depart="58" color="1,0,0"/>
    <vehicle id="19" type="typeNS" route="down" depart="62" color="1,0,0"/>
    <vehicle id="20" type="typeNS" route="down" depart="65" color="1,0,0"/>
    <vehicle id="21" type="typeNS" route="down" depart="67" color="1,0,0"/>
    <vehicle id="22" type="typeNS" route="down" depart="72" color="1,0,0"/>
    <vehicle id="23" type="typeNS" route="down" depart="74" color="1,0,0"/>
    <vehicle id="24" type="typeNS" route="down" depart="76" color="1,0,0"/>
    <vehicle id="25" type="typeNS" route="down" depart="87" color="1,0,0"/>
    <vehicle id="26" type="typeNS" route="down" depart="89" color="1,0,0"/>
    <vehicle id="27" type="typeNS" route="down" depart="91" color="1,0,0"/>
    <vehicle id="28" type="typeNS" route="down" depart="95" color="1,0,0"/>
    <vehicle id="29" type="typeNS" route="down" depart="96" color="1,0,0"/>
    <vehicle id="30" type="typeWE" route="right" depart="99" />
    <vehicle id="31" type="typeNS" route="down" depart="101" color="1,0,0"/>
    <vehicle id="32" type="typeWE" route="right" depart="108" />
    <vehicle id="33" type="typeWE" route="right" depart="114" />
    <vehicle id="34" type="typeNS" route="down" depart="117" color="1,0,0"/>
    <vehicle id="35" type="typeNS" route="down" depart="122" color="1,0,0"/>
    <vehicle id="36" type="typeNS" route="down" depart="128" color="1,0,0"/>
    <vehicle id="37" type="typeWE" route="left" depart="131" />
    <vehicle id="38" type="typeWE" route="left" depart="138" />
    <vehicle id="39" type="typeNS" route="down" depart="139" color="1,0,0"/>
    <vehicle id="40" type="typeNS" route="down" depart="140" color="1,0,0"/>
    <vehicle id="41" type="typeWE" route="left" depart="142" />
    <vehicle id="42" type="typeWE" route="left" depart="160" />
    <vehicle id="43" type="typeWE" route="left" depart="164" />
    <vehicle id="44" type="typeNS" route="down" depart="165" color="1,0,0"/>
    <vehicle id="45" type="typeWE" route="right" depart="167" />
    <vehicle id="46" type="typeWE" route="right" depart="168" />
    <vehicle id="47" type="typeNS" route="down" depart="168" color="1,0,0"/>
    <vehicle id="48" type="typeNS" route="down" depart="172" color="1,0,0"/>
    <vehicle id="49" type="typeNS" route="down" depart="175" color="1,0,0"/>
    <vehicle id="50" type="typeWE" route="right" depart="176" />
    <vehicle id="51" type="typeNS" route="down" depart="176" color="1,0,0"/>
    <vehicle id="52" type="typeNS" route="down" depart="178" color="1,0,0"/>
    <vehicle id="53" type="typeNS" route="down" depart="179" color="1,0,0"/>
    <vehicle id="54" type="typeNS" route="down" depart="180" color="1,0,0"/>
    <vehicle id="55" type="typeWE" route="right" depart="181" />
    <vehicle id="56" type="typeNS" route="down" depart="188" color="1,0,0"/>
    <vehicle id="57" type="typeWE" route="left" depart="196" />
    <vehicle id="58" type="typeWE" route="left" depart="199" />
    <vehicle id="59" type="typeNS" route="down" depart="202" color="1,0,0"/>
    <vehicle id="60" type="typeNS" route="down" depart="207" color="1,0,0"/>
    <vehicle id="61" type="typeNS" route="down" depart="208" color="1,0,0"/>
    <vehicle id="62" type="typeWE" route="left" depart="212" />
    <vehicle id="63" type="typeNS" route="down" depart="216" color="1,0,0"/>
    <vehicle id="64" type="typeNS" route="down" depart="218" color="1,0,0"/>
    <vehicle id="65" type="typeNS" route="down" depart="219" color="1,0,0"/>
    <vehicle id="66" type="typeNS" route="down" depart="227" color="1,0,0"/>
    <vehicle id="67" type="typeWE" route="right" depart="228" />
    <vehicle id="68" type="typeNS" route="down" depart="234" color="1,0,0"/>
    <vehicle id="69" type="typeNS" route="down" depart="238" color="1,0,0"/>
    <vehicle id="70" type="typeNS" route="down" depart="242" color="1,0,0"/>
    <vehicle id="71" type="typeNS" route="down" depart="245" color="1,0,0"/>
    <vehicle id="72" type="typeNS" route="down" depart="252" color="1,0,0"/>
    <vehicle id="73" type="typeNS" route="down" depart="259" color="1,0,0"/>
    <vehicle id="74" type="typeNS" route="down" depart="270" color="1,0,0"/>
    <vehicle id="75" type="typeNS" route="down" depart="283" color="1,0,0"/>
    <vehicle id="76" type="typeNS" route="down" depart="290" color="1,0,0"/>
    <vehicle id="77" type="typeNS" route="down" depart="292" color="1,0,0"/>
    <vehicle id="78" type="typeWE" route="right" depart="294" />
    <vehicle id="79" type="typeNS" route="down" depart="302" color="1,0,0"/>
    <vehicle id="80" type="typeNS" route="down" depart="309" color="1,0,0"/>
    <vehicle id="81" type="typeNS" route="down" depart="310" color="1,0,0"/>
    <vehicle id="82" type="typeNS" route="down" depart="315" color="1,0,0"/>
    <vehicle id="83" type="typeNS" route="down" depart="318" color="1,0,0"/>
    <vehicle id="84" type="typeWE" route="right" depart="322" />
    <vehicle id="85" type="typeNS" route="down" depart="323" color="1,0,0"/>
    <vehicle id="86" type="typeNS" route="down" depart="326" color="1,0,0"/>
    <vehicle id="87" type="typeNS" route="down" depart="329" color="1,0,0"/>
    <vehicle id="88" type="typeNS" route="down" depart="331" color="1,0,0"/>
    <vehicle id="89" type="typeNS" route="down" depart="335" color="1,0,0"/>
    <vehicle id="90" type="typeNS" route="down" depart="337" color="1,0,0"/>
    <vehicle id="91" type="typeNS" route="down" depart="338" color="1,0,0"/>
    <vehicle id="92" type="typeWE" route="right" depart="342" />
    <vehicle id="93" type="typeNS" route="down" depart="342" color="1,0,0"/>
    <vehicle id="94" type="typeNS" route="down" depart="343" color="1,0,0"/>
    <vehicle id="95" type="typeWE" route="left" depart="344" />
    <vehicle id="96" type="typeNS" route="down" depart="344" color="1,0,0"/>
    <vehicle id="97" type="typeNS" route="down" depart="348" color="1,0,0"/>
    <vehicle id="98" type="typeNS" route="down" depart="349" color="1,0,0"/>
    <vehicle id="99" type="typeNS" route="down" depart="351" color="1,0,0"/>
    <vehicle id="100" type="typeNS" route="down" depart="353" color="1,0,0"/>
    <vehicle id="101" type="typeNS" route="down" depart="354" color="1,0,0"/>
    <vehicle id="102" type="typeNS" route="down" depart="357" color="1,0,0"/>
    <vehicle id="103" type="typeNS" route="down" depart="361" color="1,0,0"/>
    <vehicle id="104" type="typeNS" route="down" depart="363" color="1,0,0"/>
    <vehicle id="105" type="typeNS" route="down" depart="364" color="1,0,0"/>
    <vehicle id="106" type="typeWE" route="right" depart="375" />
    <vehicle id="107" type="typeNS" route="down" depart="377" color="1,0,0"/>
    <vehicle id="108" type="typeNS" route="down" depart="379" color="1,0,0"/>
    <vehicle id="109" type="typeNS" route="down" depart="382" color="1,0,0"/>
    <vehicle id="110" type="typeWE" route="left" depart="389" />
    <vehicle id="111" type="typeWE" route="left" depart="391" />
    <vehicle id="112" type="typeNS" route="down" depart="394" color="1,0,0"/>
    <vehicle id="113" type="typeWE" route="right" depart="395" />
    <vehicle id="114" type="typeNS" route="down" depart="397" color="1,0,0"/>
    <vehicle id="115" type="typeNS" route="down" depart="399" color="1,0,0"/>
    <vehicle id="116" type="typeNS" route="down" depart="402" color="1,0,0"/>
    <vehicle id="117" type="typeNS" route="down" depart="407" color="1,0,0"/>
    <vehicle id="118" type="typeNS" route="down" depart="411" color="1,0,0"/>
    <vehicle id="119" type="typeNS" route="down" depart="414" color="1,0,0"/>
    <vehicle id="120" type="typeNS" route="down" depart="420" color="1,0,0"/>
    <vehicle id="121" type="typeNS" route="down" depart="426" color="1,0,0"/>
    <vehicle id="122" type="typeNS" route="down" depart="436" color="1,0,0"/>
    <vehicle id="123" type="typeNS" route="down" depart="438" color="1,0,0"/>
    <vehicle id="124" type="typeNS" route="down" depart="440" color="1,0,0"/>
    <vehicle id="125" type="typeNS" route="down" depart="441" color="1,0,0"/>
    <vehicle id="126" type="typeNS" route="down" depart="443" color="1,0,0"/>
    <vehicle id="127" type="typeNS" route="down" depart="451" color="1,0,0"/>
    <vehicle id="128" type="typeNS" route="down" depart="455" color="1,0,0"/>
    <vehicle id="129" type="typeNS" route="down" depart="457" color="1,0,0"/>
    <vehicle id="130" type="typeNS" route="down" depart="459" color="1,0,0"/>
    <vehicle id="131" type="typeNS" route="down" depart="462" color="1,0,0"/>
    <vehicle id="132" type="typeNS" route="down" depart="463" color="1,0,0"/>
    <vehicle id="133" type="typeWE" route="left" depart="469" />
    <vehicle id="134" type="typeWE" route="left" depart="476" />
    <vehicle id="135" type="typeNS" route="down" depart="483" color="1,0,0"/>
    <vehicle id="136" type="typeNS" route="down" depart="498" color="1,0,0"/>
    <vehicle id="137" type="typeNS" route="down" depart="500" color="1,0,0"/>
    <vehicle id="138" type="typeNS" route="down" depart="501" color="1,0,0"/>
    <vehicle id="139" type="typeNS" route="down" depart="512" color="1,0,0"/>
    <vehicle id="140" type="typeNS" route="down" depart="518" color="1,0,0"/>
    <vehicle id="141" type="typeNS" route="down" depart="520" color="1,0,0"/>
    <vehicle id="142" type="typeNS" route="down" depart="527" color="1,0,0"/>
    <vehicle id="143" type="typeNS" route="down" depart="531" color="1,0,0"/>
    <vehicle id="144" type="typeNS" route="down" depart="533" color="1,0,0"/>
    <vehicle id="145" type="typeWE" route="right" depart="536" />
    <vehicle id="146" type="typeNS" route="down" depart="541" color="1,0,0"/>
    <vehicle id="147" type="typeWE" route="left" depart="552" />
    <vehicle id="148" type="typeNS" route="down" depart="559" color="1,0,0"/>
    <vehicle id="149" type="typeNS" route="down" depart="561" color="1,0,0"/>
    <vehicle id="150" type="typeNS" route="down" depart="573" color="1,0,0"/>
    <vehicle id="151" type="typeNS" route="down" depart="577" color="1,0,0"/>
    <vehicle id="152" type="typeWE" route="left" depart="578" />
    <vehicle id="153" type="typeWE" route="left" depart="579" />
    <vehicle id="154" type="typeNS" route="down" depart="582" color="1,0,0"/>
    <vehicle id="155" type="typeNS" route="down" depart="584" color="1,0,0"/>
    <vehicle id="156" type="typeNS" route="down" depart="587" color="1,0,0"/>
    <vehicle id="157" type="typeNS" route="down" depart="600" color="1,0,0"/>
    <vehicle id="158" type="typeNS" route="down" depart="601" color="1,0,0"/>
    <vehicle id="159" type="typeWE" route="left" depart="602" />
    <vehicle id="160" type="typeNS" route="down" depart="604" color="1,0,0"/>
    <vehicle id="161" type="typeWE" route="right" depart="612" />
    <vehicle id="162" type="typeNS" route="down" depart="612" color="1,0,0"/>
    <vehicle id="163" type="typeNS" route="down" depart="615" color="1,0,0"/>
    <vehicle id="164" type="typeNS" route="down" depart="620" color="1,0,0"/>
    <vehicle id="165" type="typeNS" route="down" depart="621" color="1,0,0"/>
    <vehicle id="166" type="typeNS" route="down" depart="624" color="1,0,0"/>
    <vehicle id="167" type="typeNS" route="down" depart="625" color="1,0,0"/>
    <vehicle id="168" type="typeNS" route="down" depart="644" color="1,0,0"/>
    <vehicle id="169" type="typeNS" route="down" depart="645" color="1,0,0"/>
    <vehicle id="170" type="typeWE" route="left" depart="646" />
    <vehicle id="171" type="typeNS" route="down" depart="653" color="1,0,0"/>
    <vehicle id="172" type="typeWE" route="right" depart="654" />
    <vehicle id="173" type="typeNS" route="down" depart="657" color="1,0,0"/>
    <vehicle id="174" type="typeWE" route="left" depart="659" />
    <vehicle id="175" type="typeNS" route="down" depart="666" color="1,0,0"/>
    <vehicle id="176" type="typeNS" route="down" depart="680" color="1,0,0"/>
    <vehicle id="177" type="typeWE" route="left" depart="683" />
    <vehicle id="178" type="typeNS" route="down" depart="698" color="1,0,0"/>
    <vehicle id="179" type="typeNS" route="down" depart="700" color="1,0,0"/>
    <vehicle id="180" type="typeWE" route="right" depart="704" />
    <vehicle id="181" type="typeNS" route="down" depart="706" color="1,0,0"/>
    <vehicle id="182" type="typeWE" route="left" depart="707" />
    <vehicle id="183" type="typeNS" route="down" depart="708" color="1,0,0"/>
    <vehicle id="184" type="typeNS" route="down" depart="710" color="1,0,0"/>
    <vehicle id="185" type="typeNS" route="down" depart="717" color="1,0,0"/>
    <vehicle id="186" type="typeNS" route="down" depart="720" color="1,0,0"/>
    <vehicle id="187" type="typeNS" route="down" depart="722" color="1,0,0"/>
    <vehicle id="188" type="typeWE" route="right" depart="724" />
    <vehicle id="189" type="typeNS" route="down" depart="726" color="1,0,0"/>
    <vehicle id="190" type="typeNS" route="down" depart="733" color="1,0,0"/>
    <vehicle id="191" type="typeNS" route="down" depart="736" color="1,0,0"/>
    <vehicle id="192" type="typeWE" route="left" depart="740" />
    <vehicle id="193" type="typeNS" route="down" depart="741" color="1,0,0"/>
    <vehicle id="194" type="typeWE" route="left" depart="743" />
    <vehicle id="195" type="typeNS" route="down" depart="747" color="1,0,0"/>
    <vehicle id="196" type="typeNS" route="down" depart="750" color="1,0,0"/>
    <vehicle id="197" type="typeNS" route="down" depart="752" color="1,0,0"/>
    <vehicle id="198" type="typeNS" route="down" depart="772" color="1,0,0"/>
    <vehicle id="199" type="typeNS" route="down" depart="776" color="1,0,0"/>
    <vehicle id="200" type="typeNS" route="down" depart="780" color="1,0,0"/>
    <vehicle id="201" type="typeNS" route="down" depart="782" color="1,0,0"/>
    <vehicle id="202" type="typeNS" route="down" depart="787" color="1,0,0"/>
    <vehicle id="203" type="typeNS" route="down" depart="788" color="1,0,0"/>
    <vehicle id="204" type="typeNS" route="down" depart="790" color="1,0,0"/>
    <vehicle id="205" type="typeNS" route="down" depart="791" color="1,0,0"/>
    <vehicle id="206" type="typeNS" route="down" depart="794" color="1,0,0"/>
    <vehicle id="207" type="typeNS" route="down" depart="795" color="1,0,0"/>
    <vehicle id="208" type="typeNS" route="down" depart="801" color="1,0,0"/>
    <vehicle id="209" type="typeNS" route="down" depart="802" color="1,0,0"/>
    <vehicle id="210" type="typeNS" route="down" depart="804" color="1,0,0"/>
    <vehicle id="211" type="typeNS" route="down" depart="808" color="1,0,0"/>
    <vehicle id="212" type="typeWE" route="left" depart="812" />
    <vehicle id="213" type="typeNS" route="down" depart="815" color="1,0,0"/>
    <vehicle id="214" type="typeNS" route="down" depart="817" color="1,0,0"/>
    <vehicle id="215" type="typeNS" route="down" depart="824" color="1,0,0"/>
    <vehicle id="216" type="typeNS" route="down" depart="829" color="1,0,0"/>
    <vehicle id="217" type="typeNS" route="down" depart="831" color="1,0,0"/>
    <vehicle id="218" type="typeNS" route="down" depart="838" color="1,0,0"/>
    <vehicle id="219" type="typeNS" route="down" depart="845" color="1,0,0"/>
    <vehicle id="220" type="typeNS" route="down" depart="846" color="1,0,0"/>
    <vehicle id="221" type="typeNS" route="down" depart="847" color="1,0,0"/>
    <vehicle id="222" type="typeNS" route="down" depart="849" color="1,0,0"/>
    <vehicle id="223" type="typeWE" route="left" depart="854" />
    <vehicle id="224" type="typeWE" route="right" depart="856" />
    <vehicle id="225" type="typeNS" route="down" depart="857" color="1,0,0"/>
    <vehicle id="226" type="typeNS" route="down" depart="861" color="1,0,0"/>
    <vehicle id="227" type="typeWE" route="left" depart="862" />
    <vehicle id="228" type="typeNS" route="down" depart="865" color="1,0,0"/>
    <vehicle id="229" type="typeNS" route="down" depart="867" color="1,0,0"/>
    <vehicle id="230" type="typeNS" route="down" depart="872" color="1,0,0"/>
    <vehicle id="231" type="typeWE" route="right" depart="879" />
    <vehicle id="232" type="typeNS" route="down" depart="882" color="1,0,0"/>
    <vehicle id="233" type="typeNS" route="down" depart="888" color="1,0,0"/>
    <vehicle id="234" type="typeNS" route="down" depart="893" color="1,0,0"/>
    <vehicle id="235" type="typeNS" route="down" depart="895" color="1,0,0"/>
    <vehicle id="236" type="typeNS" route="down" depart="896" color="1,0,0"/>
    <vehicle id="237" type="typeNS" route="down" depart="897" color="1,0,0"/>
    <vehicle id="238" type="typeNS" route="down" depart="901" color="1,0,0"/>
    <vehicle id="239" type="typeNS" route="down" depart="909" color="1,0,0"/>
    <vehicle id="240" type="typeNS" route="down" depart="911" color="1,0,0"/>
    <vehicle id="241" type="typeNS" route="down" depart="914" color="1,0,0"/>
    <vehicle id="242" type="typeWE" route="right" depart="916" />
    <vehicle id="243" type="typeWE" route="left" depart="918" />
    <vehicle id="244" type="typeNS" route="down" depart="919" color="1,0,0"/>
    <vehicle id="245" type="typeNS" route="down" depart="924" color="1,0,0"/>
    <vehicle id="246" type="typeNS" route="down" depart="925" color="1,0,0"/>
    <vehicle id="247" type="typeNS" route="down" depart="929" color="1,0,0"/>
    <vehicle id="248" type="typeNS" route="down" depart="935" color="1,0,0"/>
    <vehicle id="249" type="typeNS" route="down" depart="936" color="1,0,0"/>
    <vehicle id="250" type="typeWE" route="right" depart="939" />
    <vehicle id="251" type="typeNS" route="down" depart="941" color="1,0,0"/>
    <vehicle id="252" type="typeNS" route="down" depart="942" color="1,0,0"/>
    <vehicle id="253" type="typeWE" route="left" depart="945" />
    <vehicle id="254" type="typeNS" route="down" depart="945" color="1,0,0"/>
    <vehicle id="255" type="typeNS" route="down" depart="946" color="1,0,0"/>
    <vehicle id="256" type="typeNS" route="down" depart="948" color="1,0,0"/>
    <vehicle id="257" type="typeWE" route="right" depart="950" />
    <vehicle id="258" type="typeNS" route="down" depart="950" color="1,0,0"/>
    <vehicle id="259" type="typeNS" route="down" depart="961" color="1,0,0"/>
    <vehicle id="260" type="typeNS" route="down" depart="963" color="1,0,0"/>
    <vehicle id="261" type="typeNS" route="down" depart="969" color="1,0,0"/>
    <vehicle id="262" type="typeNS" route="down" depart="974" color="1,0,0"/>
    <vehicle id="263" type="typeNS" route="down" depart="975" color="1,0,0"/>
    <vehicle id="264" type="typeWE" route="left" depart="977" />
    <vehicle id="265" type="typeNS" route="down" depart="980" color="1,0,0"/>
    <vehicle id="266" type="typeNS" route="down" depart="981" color="1,0,0"/>
    <vehicle id="267" type="typeNS" route="down" depart="985" color="1,0,0"/>
    <vehicle id="268" type="typeNS" route="down" depart="986" color="1,0,0"/>
    <vehicle id="269" type="typeWE" route="right" depart="989" />
    <vehicle id="270" type="typeNS" route="down" depart="992" color="1,0,0"/>
    <vehicle id="271" type="typeNS" route="down" depart="995" color="1,0,0"/>
    <vehicle id="272" type="typeNS" route="down" depart="996" color="1,0,0"/>
    <vehicle id="273" type="typeWE" route="left" depart="1006" />
    <vehicle id="274" type="typeNS" route="down" depart="1007" color="1,0,0"/>
    <vehicle id="275" type="typeNS" route="down" depart="1008" color="1,0,0"/>
    <vehicle id="276" type="typeWE" route="left" depart="1014" />
    <vehicle id="277" type="typeNS" route="down" depart="1014" color="1,0,0"/>
    <vehicle id="278" type="typeNS" route="down" depart="1020" color="1,0,0"/>
    <vehicle id="279" type="typeNS" route="down" depart="1021" color="1,0,0"/>
    <vehicle id="280" type="typeNS" route="down" depart="1029" color="1,0,0"/>
    <vehicle id="281" type="typeNS" route="down" depart="1043" color="1,0,0"/>
    <vehicle id="282" type="typeNS" route="down" depart="1044" color="1,0,0"/>
    <vehicle id="283" type="typeWE" route="right" depart="1047" />
    <vehicle id="284" type="typeNS" route="down" depart="1049" color="1,0,0"/>
    <vehicle id="285" type="typeNS" route="down" depart="1054" color="1,0,0"/>
    <vehicle id="286" type="typeNS" route="down" depart="1055" color="1,0,0"/>
    <vehicle id="287" type="typeNS" route="down" depart="1056" color="1,0,0"/>
    <vehicle id="288" type="typeNS" route="down" depart="1060" color="1,0,0"/>
    <vehicle id="289" type="typeWE" route="right" depart="1061" />
    <vehicle id="290" type="typeWE" route="right" depart="1068" />
    <vehicle id="291" type="typeWE" route="right" depart="1069" />
    <vehicle id="292" type="typeWE" route="left" depart="1070" />
    <vehicle id="293" type="typeNS" route="down" depart="1077" color="1,0,0"/>
    <vehicle id="294" type="typeNS" route="down" depart="1080" color="1,0,0"/>
    <vehicle id="295" type="typeNS" route="down" depart="1090" color="1,0,0"/>
    <vehicle id="296" type="typeNS" route="down" depart="1103" color="1,0,0"/>
    <vehicle id="297" type="typeWE" route="left" depart="1104" />
    <vehicle id="298" type="typeNS" route="down" depart="1106" color="1,0,0"/>
    <vehicle id="299" type="typeNS" route="down" depart="1108" color="1,0,0"/>
    <vehicle id="300" type="typeNS" route="down" depart="1109" color="1,0,0"/>
    <vehicle id="301" type="typeNS" route="down" depart="1110" color="1,0,0"/>
    <vehicle id="302" type="typeNS" route="down" depart="1112" color="1,0,0"/>
    <vehicle id="303" type="typeNS" route="down" depart="1113" color="1,0,0"/>
    <vehicle id="304" type="typeNS" route="down" depart="1117" color="1,0,0"/>
    <vehicle id="305" type="typeNS" route="down" depart="1119" color="1,0,0"/>
    <vehicle id="306" type="typeNS" route="down" depart="1120" color="1,0,0"/>
    <vehicle id="307" type="typeNS" route="down" depart="1121" color="1,0,0"/>
    <vehicle id="308" type="typeWE" route="left" depart="1124" />
    <vehicle id="309" type="typeNS" route="down" depart="1129" color="1,0,0"/>
    <vehicle id="310" type="typeNS" route="down" depart="1130" color="1,0,0"/>
    <vehicle id="311" type="typeNS" route="down" depart="1131" color="1,0,0"/>
    <vehicle id="312" type="typeNS" route="down" depart="1133" color="1,0,0"/>
    <vehicle id="313" type="typeWE" route="left" depart="1135" />
    <vehicle id="314" type="typeNS" route="down" depart="1140" color="1,0,0"/>
    <vehicle id="315" type="typeNS" route="down" depart="1142" color="1,0,0"/>
    <vehicle id="316" type="typeNS" route="down" depart="1146" color="1,0,0"/>
    <vehicle id="317" type="typeNS" route="down" depart="1149" color="1,0,0"/>
    <vehicle id="318" type="typeNS" route="down" depart="1152" color="1,0,0"/>
    <vehicle id="319" type="typeNS" route="down" depart="1153" color="1,0,0"/>
    <vehicle id="320" type="typeNS" route="down" depart="1155" color="1,0,0"/>
    <vehicle id="321" type="typeNS" route="down" depart="1160" color="1,0,0"/>
    <vehicle id="322" type="typeNS" route="down" depart="1163" color="1,0,0"/>
    <vehicle id="323" type="typeNS" route="down" depart="1165" color="1,0,0"/>
    <vehicle id="324" type="typeWE" route="left" depart="1172" />
    <vehicle id="325" type="typeNS" route="down" depart="1172" color="1,0,0"/>
    <vehicle id="326" type="typeNS" route="down" depart="1175" color="1,0,0"/>
    <vehicle id="327" type="typeNS" route="down" depart="1181" color="1,0,0"/>
    <vehicle id="328" type="typeNS" route="down" depart="1183" color="1,0,0"/>
    <vehicle id="329" type="typeNS" route="down" depart="1185" color="1,0,0"/>
    <vehicle id="330" type="typeNS" route="down" depart="1188" color="1,0,0"/>
    <vehicle id="331" type="typeNS" route="down" depart="1189" color="1,0,0"/>
    <vehicle id="332" type="typeNS" route="down" depart="1191" color="1,0,0"/>
    <vehicle id="333" type="typeNS" route="down" depart="1192" color="1,0,0"/>
    <vehicle id="334" type="typeWE" route="right" depart="1208" />
    <vehicle id="335" type="typeNS" route="down" depart="1209" color="1,0,0"/>
    <vehicle id="336" type="typeWE" route="right" depart="1212" />
    <vehicle id="337" type="typeNS" route="down" depart="1212" color="1,0,0"/>
    <vehicle id="338" type="typeWE" route="left" depart="1218" />
    <vehicle id="339" type="typeNS" route="down" depart="1227" color="1,0,0"/>
    <vehicle id="340" type="typeNS" route="down" depart="1228" color="1,0,0"/>
    <vehicle id="341" type="typeNS" route="down" depart="1233" color="1,0,0"/>
    <vehicle id="342" type="typeWE" route="left" depart="1237" />
    <vehicle id="343" type="typeNS" route="down" depart="1243" color="1,0,0"/>
    <vehicle id="344" type="typeWE" route="left" depart="1246" />
    <vehicle id="345" type="typeNS" route="down" depart="1246" color="1,0,0"/>
    <vehicle id="346" type="typeWE" route="left" depart="1255" />
    <vehicle id="347" type="typeNS" route="down" depart="1258" color="1,0,0"/>
    <vehicle id="348" type="typeNS" route="down" depart="1259" color="1,0,0"/>
    <vehicle id="349" type="typeNS" route="down" depart="1263" color="1,0,0"/>
    <vehicle id="350" type="typeNS" route="down" depart="1266" color="1,0,0"/>
    <vehicle id="351" type="typeWE" route="right" depart="1267" />
    <vehicle id="352" type="typeNS" route="down" depart="1270" color="1,0,0"/>
    <vehicle id="353" type="typeNS" route="down" depart="1271" color="1,0,0"/>
    <vehicle id="354" type="typeNS" route="down" depart="1276" color="1,0,0"/>
    <vehicle id="355" type="typeWE" route="left" depart="1281" />
    <vehicle id="356" type="typeNS" route="down" depart="1285" color="1,0,0"/>
    <vehicle id="357" type="typeNS" route="down" depart="1288" color="1,0,0"/>
    <vehicle id="358" type="typeWE" route="right" depart="1289" />
    <vehicle id="359" type="typeNS" route="down" depart="1289" color="1,0,0"/>
    <vehicle id="360" type="typeNS" route="down" depart="1312" color="1,0,0"/>
    <vehicle id="361" type="typeNS" route="down" depart="1313" color="1,0,0"/>
    <vehicle id="362" type="typeNS" route="down" depart="1314" color="1,0,0"/>
    <vehicle id="363" type="typeNS" route="down" depart="1317" color="1,0,0"/>
    <vehicle id="364" type="typeNS" route="down" depart="1318" color="1,0,0"/>
    <vehicle id="365" type="typeNS" route="down" depart="1320" color="1,0,0"/>
    <vehicle id="366" type="typeWE" route="right" depart="1322" />
    <vehicle id="367" type="typeNS" route="down" depart="1324" color="1,0,0"/>
    <vehicle id="368" type="typeNS" route="down" depart="1336" color="1,0,0"/>
    <vehicle id="369" type="typeNS" route="down" depart="1342" color="1,0,0"/>
    <vehicle id="370" type="typeWE" route="left" depart="1344" />
    <vehicle id="371" type="typeWE" route="right" depart="1357" />
    <vehicle id="372" type="typeNS" route="down" depart="1357" color="1,0,0"/>
    <vehicle id="373" type="typeNS" route="down" depart="1358" color="1,0,0"/>
    <vehicle id="374" type="typeNS" route="down" depart="1359" color="1,0,0"/>
    <vehicle id="375" type="typeNS" route="down" depart="1364" color="1,0,0"/>
    <vehicle id="376" type="typeWE" route="right" depart="1367" />
    <vehicle id="377" type="typeNS" route="down" depart="1374" color="1,0,0"/>
    <vehicle id="378" type="typeNS" route="down" depart="1380" color="1,0,0"/>
    <vehicle id="379" type="typeWE" route="right" depart="1384" />
    <vehicle id="380" type="typeNS" route="down" depart="1391" color="1,0,0"/>
    <vehicle id="381" type="typeNS" route="down" depart="1398" color="1,0,0"/>
    <vehicle id="382" type="typeNS" route="down" depart="1402" color="1,0,0"/>
    <vehicle id="383" type="typeNS" route="down" depart="1408" color="1,0,0"/>
    <vehicle id="384" type="typeNS" route="down" depart="1409" color="1,0,0"/>
    <vehicle id="385" type="typeNS" route="down" depart="1412" color="1,0,0"/>
    <vehicle id="386" type="typeNS" route="down" depart="1416" color="1,0,0"/>
    <vehicle id="387" type="typeWE" route="right" depart="1420" />
    <vehicle id="388" type="typeNS" route="down" depart="1425" color="1,0,0"/>
    <vehicle id="389" type="typeNS" route="down" depart="1432" color="1,0,0"/>
    <vehicle id="390" type="typeWE" route="right" depart="1433" />
    <vehicle id="391" type="typeNS" route="down" depart="1434" color="1,0,0"/>
    <vehicle id="392" type="typeNS" route="down" depart="1435" color="1,0,0"/>
    <vehicle id="393" type="typeNS" route="down" depart="1436" color="1,0,0"/>